
     RDKit          3D

 16 15  0  0  0  0  0  0  0  0999 V2000
  -32.9038   57.7933   62.0914 C   0  0  0  0  0  0  0  0  0  0  0  0
  -42.1388   66.7421   63.6842 O   0  0  0  0  0  0  0  0  0  0  0  0
  -34.2114   58.0239   61.3934 C   0  0  0  0  0  0  0  0  0  0  0  0
  -34.8621   56.7014   61.0438 C   0  0  0  0  0  0  0  0  0  0  0  0
  -35.1303   58.9306   62.1703 C   0  0  0  0  0  0  0  0  0  0  0  0
  -36.5269   58.9414   61.6447 C   0  0  0  0  0  0  0  0  0  0  0  0
  -37.3262   59.9511   62.4415 C   0  0  0  0  0  0  0  0  0  0  0  0
  -38.7488   60.0529   61.9333 C   0  0  0  0  0  0  0  0  0  0  0  0
  -39.0195   58.7670   61.1416 C   0  0  0  0  0  0  0  0  0  0  0  0
  -39.7282   60.0698   63.0636 C   0  0  0  0  0  0  0  0  0  0  0  0
  -39.7065   61.3877   63.8221 C   0  0  0  0  0  0  0  0  0  0  0  0
  -40.7484   62.2748   63.1769 C   0  0  0  0  0  0  0  0  0  0  0  0
  -41.4440   63.1568   64.1754 C   0  0  0  0  0  0  0  0  0  0  0  0
  -41.2314   62.7299   65.5929 C   0  0  0  0  0  0  0  0  0  0  0  0
  -41.0599   64.6121   64.0069 C   0  0  0  0  0  0  0  0  0  0  0  0
  -42.2882   65.3821   63.5708 C   0  0  0  0  0  0  0  0  0  0  0  0
  1  3  1  0
  2 16  1  0
  3  4  1  0
  3  5  1  0
  5  6  1  0
  6  7  1  0
  7  8  1  0
  8  9  1  0
  8 10  1  0
 10 11  1  0
 11 12  1  0
 12 13  1  0
 13 14  1  0
 13 15  1  0
 15 16  1  0
M  END
$$$$
