
     RDKit          3D

 16 15  0  0  0  0  0  0  0  0999 V2000
  -42.4373   62.1420   62.0796 C   0  0  0  0  0  0  0  0  0  0  0  0
  -30.9572   63.0793   61.8473 O   0  0  0  0  0  0  0  0  0  0  0  0
  -42.4871   60.7231   62.5639 C   0  0  0  0  0  0  0  0  0  0  0  0
  -43.6408   59.9858   61.9159 C   0  0  0  0  0  0  0  0  0  0  0  0
  -41.1738   60.0055   62.3894 C   0  0  0  0  0  0  0  0  0  0  0  0
  -40.0603   60.6206   63.1695 C   0  0  0  0  0  0  0  0  0  0  0  0
  -38.9309   59.6157   63.2576 C   0  0  0  0  0  0  0  0  0  0  0  0
  -37.7572   60.1722   64.0356 C   0  0  0  0  0  0  0  0  0  0  0  0
  -37.9987   59.8062   65.5057 C   0  0  0  0  0  0  0  0  0  0  0  0
  -36.4783   59.5070   63.6368 C   0  0  0  0  0  0  0  0  0  0  0  0
  -35.2726   60.4104   63.8438 C   0  0  0  0  0  0  0  0  0  0  0  0
  -34.0603   59.6217   63.4003 C   0  0  0  0  0  0  0  0  0  0  0  0
  -32.7798   60.3820   63.6026 C   0  0  0  0  0  0  0  0  0  0  0  0
  -31.5960   59.4981   63.8348 C   0  0  0  0  0  0  0  0  0  0  0  0
  -32.5020   61.3342   62.4580 C   0  0  0  0  0  0  0  0  0  0  0  0
  -31.2493   62.1190   62.7840 C   0  0  0  0  0  0  0  0  0  0  0  0
  1  3  1  0
  2 16  1  0
  3  4  1  0
  3  5  1  0
  5  6  1  0
  6  7  1  0
  7  8  1  0
  8  9  1  0
  8 10  1  0
 10 11  1  0
 11 12  1  0
 12 13  1  0
 13 14  1  0
 13 15  1  0
 15 16  1  0
M  END
$$$$
