
     RDKit          3D

 16 15  0  0  0  0  0  0  0  0999 V2000
  -44.6149   58.5934   60.3032 C   0  0  0  0  0  0  0  0  0  0  0  0
  -31.8637   59.3414   63.5816 O   0  0  0  0  0  0  0  0  0  0  0  0
  -43.9299   59.5809   61.2009 C   0  0  0  0  0  0  0  0  0  0  0  0
  -44.9488   60.4843   61.8646 C   0  0  0  0  0  0  0  0  0  0  0  0
  -43.0120   58.9191   62.1958 C   0  0  0  0  0  0  0  0  0  0  0  0
  -42.0275   59.8615   62.8036 C   0  0  0  0  0  0  0  0  0  0  0  0
  -41.1138   59.0701   63.7158 C   0  0  0  0  0  0  0  0  0  0  0  0
  -39.9823   59.9278   64.2418 C   0  0  0  0  0  0  0  0  0  0  0  0
  -40.3836   60.3529   65.6602 C   0  0  0  0  0  0  0  0  0  0  0  0
  -38.7201   59.1367   64.3766 C   0  0  0  0  0  0  0  0  0  0  0  0
  -37.6871   59.5212   63.3290 C   0  0  0  0  0  0  0  0  0  0  0  0
  -36.3385   59.4691   64.0124 C   0  0  0  0  0  0  0  0  0  0  0  0
  -35.3797   60.4865   63.4607 C   0  0  0  0  0  0  0  0  0  0  0  0
  -35.8634   61.8946   63.6020 C   0  0  0  0  0  0  0  0  0  0  0  0
  -33.9987   60.3472   64.0667 C   0  0  0  0  0  0  0  0  0  0  0  0
  -33.1417   59.5353   63.1191 C   0  0  0  0  0  0  0  0  0  0  0  0
  1  3  1  0
  2 16  1  0
  3  4  1  0
  3  5  1  0
  5  6  1  0
  6  7  1  0
  7  8  1  0
  8  9  1  0
  8 10  1  0
 10 11  1  0
 11 12  1  0
 12 13  1  0
 13 14  1  0
 13 15  1  0
 15 16  1  0
M  END
$$$$
