
     RDKit          3D

 50 49  0  0  0  0  0  0  0  0999 V2000
  -36.6456   57.2987   61.0775 C   0  0  0  0  0  0  0  0  0  0  0  0
  -31.2002   66.5479   61.6916 C   0  0  0  0  0  0  0  0  0  0  0  0
  -37.0267   59.5687   62.2120 C   0  0  0  0  0  0  0  0  0  0  0  0
  -36.1337   61.7513   63.7611 C   0  0  1  0  0  0  0  0  0  0  0  0
  -39.6954   62.1272   65.6145 C   0  0  0  0  0  0  0  0  0  0  0  0
  -37.6764   63.6338   65.7585 C   0  0  0  0  0  0  0  0  0  0  0  0
  -34.3491   56.3512   60.9712 C   0  0  0  0  0  0  0  0  0  0  0  0
  -30.5021   67.8304   59.8595 C   0  0  0  0  0  0  0  0  0  0  0  0
  -28.9406   57.9512   63.0330 C   0  0  0  0  0  0  0  0  0  0  0  0
  -40.8380   61.5051   64.9658 C   0  0  0  0  0  0  0  0  0  0  0  0
  -44.2669   60.3104   65.7212 C   0  0  0  0  0  0  0  0  0  0  0  0
  -37.5932   61.5825   63.5570 C   0  0  0  0  0  0  0  0  0  0  0  0
  -49.6819   59.5624   61.4365 C   0  0  0  0  0  0  0  0  0  0  0  0
  -35.3952   57.2635   60.2928 C   0  0  0  0  0  0  0  0  0  0  0  0
  -48.3034   59.4920   62.0243 C   0  0  0  0  0  0  0  0  0  0  0  0
  -37.3678   58.5684   61.1700 C   0  0  0  0  0  0  0  0  0  0  0  0
  -30.8506   67.8571   61.2639 N   0  0  1  0  0  4  0  0  0  0  0  0
  -33.2246   56.2310   59.9394 C   0  0  0  0  0  0  0  0  0  0  0  0
  -32.7837   65.7274   63.2987 O   0  0  0  0  0  0  0  0  0  0  0  0
  -35.7238   63.0725   64.4023 C   0  0  2  0  0  0  0  0  0  0  0  0
  -32.0186   68.7460   61.3727 C   0  0  0  0  0  0  0  0  0  0  0  0
  -29.8082   68.4725   62.0474 C   0  0  0  0  0  0  0  0  0  0  0  0
  -32.6075   66.3280   62.0931 C   0  0  0  0  0  0  0  0  0  0  0  0
  -41.7728   60.6844   65.7533 C   0  0  0  0  0  0  0  0  0  0  0  0
  -32.3565   57.4407   60.0243 C   0  0  0  0  0  0  0  0  0  0  0  0
  -42.9679   60.1945   64.9606 C   0  0  0  0  0  0  0  0  0  0  0  0
  -34.2336   63.2064   64.4206 C   0  0  0  0  0  0  0  0  0  0  0  0
  -38.6869   62.9032   64.8932 C   0  0  0  0  0  0  0  0  0  0  0  0
  -28.7065   58.2807   64.4815 C   0  0  0  0  0  0  0  0  0  0  0  0
  -37.8010   60.8303   62.2295 C   0  0  0  0  0  0  0  0  0  0  0  0
  -49.7911   58.9079   60.0998 C   0  0  0  0  0  0  0  0  0  0  0  0
  -45.3689   60.1124   64.6998 C   0  0  0  0  0  0  0  0  0  0  0  0
  -51.1717   58.9741   59.5148 C   0  0  0  0  0  0  0  0  0  0  0  0
  -48.3102   59.2305   63.5098 C   0  0  0  0  0  0  0  0  0  0  0  0
  -51.5317   57.7590   58.7181 C   0  0  0  0  0  0  0  0  0  0  0  0
  -27.8124   59.4721   64.6861 C   0  0  0  0  0  0  0  0  0  0  0  0
  -46.7330   59.9347   65.3147 C   0  0  0  0  0  0  0  0  0  0  0  0
  -47.8029   60.3743   64.3181 C   0  0  0  0  0  0  0  0  0  0  0  0
  -52.9329   57.8387   58.1498 C   0  0  0  0  0  0  0  0  0  0  0  0
  -31.0612   57.3257   60.6991 C   0  0  0  0  0  0  0  0  0  0  0  0
  -53.1948   56.7605   57.1157 C   0  0  0  0  0  0  0  0  0  0  0  0
  -30.2554   58.4847   61.0759 C   0  0  0  0  0  0  0  0  0  0  0  0
  -30.0608   58.8983   62.4743 C   0  0  0  0  0  0  0  0  0  0  0  0
  -36.3547   63.1926   65.6515 N   0  0  0  0  0  0  0  0  0  0  0  0
  -33.8741   64.4366   64.8810 O   0  0  0  0  0  0  0  0  0  0  0  0
  -35.4401   60.6993   64.2866 O   0  0  0  0  0  0  0  0  0  0  0  0
  -37.7558   64.9888   65.3597 O   0  0  0  0  0  0  0  0  0  0  0  0
  -34.4376   66.5421   65.4666 O   0  0  0  0  0  0  0  0  0  0  0  0
  -35.4925   64.8546   63.3815 O   0  0  0  0  0  0  0  0  0  0  0  0
  -34.1853   65.6805   64.0472 P   0  0  0  0  0  5  0  0  0  0  0  0
  1 14  1  0
  1 16  1  0
  2 17  1  0
  2 23  1  0
  3 16  1  0
  3 30  1  0
  4 12  1  0
  4 46  1  1
  4 20  1  0
  5 10  1  0
  5 28  1  0
  6 44  1  0
  6 28  1  0
  6 47  1  0
  7 14  1  0
  7 18  1  0
 17  8  1  6
  9 29  1  0
  9 43  1  0
 10 24  1  0
 11 26  1  0
 11 32  1  0
 12 30  1  0
 13 31  1  0
 13 15  1  0
 15 34  1  0
 17 21  1  0
 17 22  1  0
 18 25  1  0
 19 23  1  0
 19 50  1  0
 20 27  1  1
 20 44  1  0
 24 26  1  0
 25 40  1  0
 27 45  1  0
 29 36  1  0
 31 33  1  0
 32 37  1  0
 33 35  1  0
 34 38  1  0
 35 39  1  0
 37 38  1  0
 39 41  1  0
 40 42  1  0
 42 43  1  0
 45 50  1  0
 48 50  1  0
 49 50  1  0
M  CHG  1  17   1
M  END
$$$$
