
     RDKit          3D

 50 49  0  0  0  0  0  0  0  0999 V2000
  -44.2338   58.8666   62.3135 C   0  0  0  0  0  0  0  0  0  0  0  0
  -35.3034   65.5059   64.7427 C   0  0  0  0  0  0  0  0  0  0  0  0
  -42.5681   60.4889   63.3992 C   0  0  0  0  0  0  0  0  0  0  0  0
  -40.3261   63.4075   62.6350 C   0  0  1  0  0  0  0  0  0  0  0  0
  -38.0658   61.6161   66.7769 C   0  0  0  0  0  0  0  0  0  0  0  0
  -39.6217   62.9685   65.3219 C   0  0  0  0  0  0  0  0  0  0  0  0
  -45.4182   56.7347   61.8282 C   0  0  0  0  0  0  0  0  0  0  0  0
  -34.2113   64.5419   62.9078 C   0  0  0  0  0  0  0  0  0  0  0  0
  -50.7964   56.4040   57.6947 C   0  0  0  0  0  0  0  0  0  0  0  0
  -36.7974   61.0223   67.1668 C   0  0  0  0  0  0  0  0  0  0  0  0
  -33.5713   59.6471   65.6266 C   0  0  0  0  0  0  0  0  0  0  0  0
  -40.6671   62.0805   63.2034 C   0  0  0  0  0  0  0  0  0  0  0  0
  -30.7665   55.6712   62.8931 C   0  0  0  0  0  0  0  0  0  0  0  0
  -45.3702   58.0077   62.7025 C   0  0  0  0  0  0  0  0  0  0  0  0
  -30.7058   55.7150   64.3915 C   0  0  0  0  0  0  0  0  0  0  0  0
  -43.9604   60.0575   63.1192 C   0  0  0  0  0  0  0  0  0  0  0  0
  -34.9673   64.2771   64.1132 N   0  0  1  0  0  4  0  0  0  0  0  0
  -46.7737   56.8112   61.1209 C   0  0  0  0  0  0  0  0  0  0  0  0
  -37.1817   66.9927   64.8989 O   0  0  0  0  0  0  0  0  0  0  0  0
  -40.3712   64.5625   63.6294 C   0  0  2  0  0  0  0  0  0  0  0  0
  -34.0749   63.4972   64.9858 C   0  0  0  0  0  0  0  0  0  0  0  0
  -36.1000   63.4271   63.8411 C   0  0  0  0  0  0  0  0  0  0  0  0
  -36.3199   66.3463   64.0716 C   0  0  0  0  0  0  0  0  0  0  0  0
  -35.9017   60.4638   66.1405 C   0  0  0  0  0  0  0  0  0  0  0  0
  -46.6578   57.7237   59.9470 C   0  0  0  0  0  0  0  0  0  0  0  0
  -34.5972   59.9298   66.6975 C   0  0  0  0  0  0  0  0  0  0  0  0
  -40.0297   65.8518   62.9513 C   0  0  0  0  0  0  0  0  0  0  0  0
  -38.2811   62.2769   65.4899 C   0  0  0  0  0  0  0  0  0  0  0  0
  -52.2896   56.4192   57.8733 C   0  0  0  0  0  0  0  0  0  0  0  0
  -42.0753   61.7020   62.7085 C   0  0  0  0  0  0  0  0  0  0  0  0
  -30.1214   54.4591   62.3084 C   0  0  0  0  0  0  0  0  0  0  0  0
  -32.5580   58.7114   66.2547 C   0  0  0  0  0  0  0  0  0  0  0  0
  -30.0586   54.4822   60.8089 C   0  0  0  0  0  0  0  0  0  0  0  0
  -30.0435   56.9641   64.9170 C   0  0  0  0  0  0  0  0  0  0  0  0
  -28.7475   54.9774   60.2829 C   0  0  0  0  0  0  0  0  0  0  0  0
  -53.0258   57.0002   56.6982 C   0  0  0  0  0  0  0  0  0  0  0  0
  -31.1366   59.0070   65.8512 C   0  0  0  0  0  0  0  0  0  0  0  0
  -30.7876   58.2135   64.5943 C   0  0  0  0  0  0  0  0  0  0  0  0
  -28.7234   55.0442   58.7704 C   0  0  0  0  0  0  0  0  0  0  0  0
  -47.6785   57.6474   58.8987 C   0  0  0  0  0  0  0  0  0  0  0  0
  -27.4828   54.3952   58.1872 C   0  0  0  0  0  0  0  0  0  0  0  0
  -49.0515   57.2190   59.1556 C   0  0  0  0  0  0  0  0  0  0  0  0
  -50.1950   57.6922   58.3601 C   0  0  0  0  0  0  0  0  0  0  0  0
  -39.5799   64.2404   64.7444 N   0  0  0  0  0  0  0  0  0  0  0  0
  -38.8595   66.3485   63.4397 O   0  0  0  0  0  0  0  0  0  0  0  0
  -39.2346   63.4873   61.8187 O   0  0  0  0  0  0  0  0  0  0  0  0
  -40.3866   62.1035   64.5044 O   0  0  0  0  0  0  0  0  0  0  0  0
  -39.3324   65.1744   65.3083 O   0  0  0  0  0  0  0  0  0  0  0  0
  -39.8585   67.9364   64.6737 O   0  0  0  0  0  0  0  0  0  0  0  0
  -38.7440   66.6998   64.9238 P   0  0  0  0  0  5  0  0  0  0  0  0
  1 14  1  0
  1 16  1  0
  2 17  1  0
  2 23  1  0
  3 16  1  0
  3 30  1  0
  4 12  1  0
  4 46  1  1
  4 20  1  0
  5 10  1  0
  5 28  1  0
  6 44  1  0
  6 28  1  0
  6 47  1  0
  7 14  1  0
  7 18  1  0
 17  8  1  6
  9 29  1  0
  9 43  1  0
 10 24  1  0
 11 26  1  0
 11 32  1  0
 12 30  1  0
 13 31  1  0
 13 15  1  0
 15 34  1  0
 17 21  1  0
 17 22  1  0
 18 25  1  0
 19 23  1  0
 19 50  1  0
 20 27  1  6
 20 44  1  0
 24 26  1  0
 25 40  1  0
 27 45  1  0
 29 36  1  0
 31 33  1  0
 32 37  1  0
 33 35  1  0
 34 38  1  0
 35 39  1  0
 37 38  1  0
 39 41  1  0
 40 42  1  0
 42 43  1  0
 45 50  1  0
 48 50  1  0
 49 50  1  0
M  CHG  1  17   1
M  END
$$$$
