
     RDKit          3D

 50 49  0  0  0  0  0  0  0  0999 V2000
  -43.4073   61.7188   63.7292 C   0  0  0  0  0  0  0  0  0  0  0  0
  -33.1813   66.2482   64.5158 C   0  0  0  0  0  0  0  0  0  0  0  0
  -40.8698   62.0206   63.9641 C   0  0  0  0  0  0  0  0  0  0  0  0
  -37.3036   62.3683   65.1189 C   0  0  1  0  0  0  0  0  0  0  0  0
  -35.7308   59.6044   62.9941 C   0  0  0  0  0  0  0  0  0  0  0  0
  -35.6769   62.0502   62.3759 C   0  0  0  0  0  0  0  0  0  0  0  0
  -45.3789   62.9336   64.6349 C   0  0  0  0  0  0  0  0  0  0  0  0
  -35.0515   65.8495   63.1621 C   0  0  0  0  0  0  0  0  0  0  0  0
  -49.9845   67.4151   61.8561 C   0  0  0  0  0  0  0  0  0  0  0  0
  -37.0854   59.1185   63.1998 C   0  0  0  0  0  0  0  0  0  0  0  0
  -40.3098   58.3101   61.5922 C   0  0  0  0  0  0  0  0  0  0  0  0
  -38.3909   62.1149   64.1423 C   0  0  0  0  0  0  0  0  0  0  0  0
  -46.7434   54.9925   61.1245 C   0  0  0  0  0  0  0  0  0  0  0  0
  -44.3641   62.8147   63.4760 C   0  0  0  0  0  0  0  0  0  0  0  0
  -46.2516   56.2414   61.7950 C   0  0  0  0  0  0  0  0  0  0  0  0
  -42.2319   62.0044   64.5533 C   0  0  0  0  0  0  0  0  0  0  0  0
  -33.7164   66.4061   63.2089 N   0  0  1  0  0  4  0  0  0  0  0  0
  -46.6789   63.3743   63.9571 C   0  0  0  0  0  0  0  0  0  0  0  0
  -33.0739   63.8798   64.8927 O   0  0  0  0  0  0  0  0  0  0  0  0
  -35.9691   61.7145   64.7778 C   0  0  2  0  0  0  0  0  0  0  0  0
  -33.8653   67.8376   62.9004 C   0  0  0  0  0  0  0  0  0  0  0  0
  -32.8870   65.8584   62.1641 C   0  0  0  0  0  0  0  0  0  0  0  0
  -32.3713   65.0353   64.7658 C   0  0  0  0  0  0  0  0  0  0  0  0
  -37.8458   58.5625   62.0684 C   0  0  0  0  0  0  0  0  0  0  0  0
  -46.4743   64.7173   63.3417 C   0  0  0  0  0  0  0  0  0  0  0  0
  -39.1524   57.9112   62.4756 C   0  0  0  0  0  0  0  0  0  0  0  0
  -35.1146   61.5979   66.0005 C   0  0  0  0  0  0  0  0  0  0  0  0
  -35.3825   60.6115   61.9921 C   0  0  0  0  0  0  0  0  0  0  0  0
  -50.8047   68.6590   61.6528 C   0  0  0  0  0  0  0  0  0  0  0  0
  -39.7343   62.2989   64.8722 C   0  0  0  0  0  0  0  0  0  0  0  0
  -48.2288   54.9352   60.9931 C   0  0  0  0  0  0  0  0  0  0  0  0
  -41.5436   57.6847   62.2114 C   0  0  0  0  0  0  0  0  0  0  0  0
  -48.8998   56.2558   61.2351 C   0  0  0  0  0  0  0  0  0  0  0  0
  -45.0337   56.8276   61.1257 C   0  0  0  0  0  0  0  0  0  0  0  0
  -50.3624   56.2394   60.9166 C   0  0  0  0  0  0  0  0  0  0  0  0
  -51.6807   68.6040   60.4320 C   0  0  0  0  0  0  0  0  0  0  0  0
  -42.5739   57.2583   61.1980 C   0  0  0  0  0  0  0  0  0  0  0  0
  -43.7828   56.6654   61.9180 C   0  0  0  0  0  0  0  0  0  0  0  0
  -50.6648   56.8658   59.5718 C   0  0  0  0  0  0  0  0  0  0  0  0
  -47.3415   65.8197   63.7650 C   0  0  0  0  0  0  0  0  0  0  0  0
  -51.4288   58.1693   59.7048 C   0  0  0  0  0  0  0  0  0  0  0  0
  -47.8563   66.8266   62.8399 C   0  0  0  0  0  0  0  0  0  0  0  0
  -49.0679   67.6146   63.1146 C   0  0  0  0  0  0  0  0  0  0  0  0
  -35.3854   62.3972   63.6979 N   0  0  0  0  0  0  0  0  0  0  0  0
  -34.5578   62.8026   66.3058 O   0  0  0  0  0  0  0  0  0  0  0  0
  -37.1385   63.6471   65.5677 O   0  0  0  0  0  0  0  0  0  0  0  0
  -34.8949   62.8369   61.4978 O   0  0  0  0  0  0  0  0  0  0  0  0
  -32.8685   61.3180   66.1151 O   0  0  0  0  0  0  0  0  0  0  0  0
  -33.0718   63.6943   67.7338 O   0  0  0  0  0  0  0  0  0  0  0  0
  -33.0426   62.9860   66.2069 P   0  0  0  0  0  5  0  0  0  0  0  0
  1 14  1  0
  1 16  1  0
  2 17  1  0
  2 23  1  0
  3 16  1  0
  3 30  1  0
  4 12  1  0
  4 46  1  6
  4 20  1  0
  5 10  1  0
  5 28  1  0
  6 44  1  0
  6 28  1  0
  6 47  1  0
  7 14  1  0
  7 18  1  0
 17  8  1  1
  9 29  1  0
  9 43  1  0
 10 24  1  0
 11 26  1  0
 11 32  1  0
 12 30  1  0
 13 31  1  0
 13 15  1  0
 15 34  1  0
 17 21  1  0
 17 22  1  0
 18 25  1  0
 19 23  1  0
 19 50  1  0
 20 27  1  1
 20 44  1  0
 24 26  1  0
 25 40  1  0
 27 45  1  0
 29 36  1  0
 31 33  1  0
 32 37  1  0
 33 35  1  0
 34 38  1  0
 35 39  1  0
 37 38  1  0
 39 41  1  0
 40 42  1  0
 42 43  1  0
 45 50  1  0
 48 50  1  0
 49 50  1  0
M  CHG  1  17   1
M  END
$$$$
