
     RDKit          3D

 50 49  0  0  0  0  0  0  0  0999 V2000
  -42.3074   60.6146   63.2980 C   0  0  0  0  0  0  0  0  0  0  0  0
  -39.3665   66.1202   64.7313 C   0  0  0  0  0  0  0  0  0  0  0  0
  -41.1084   62.8229   63.8186 C   0  0  0  0  0  0  0  0  0  0  0  0
  -38.7066   64.9679   63.7288 C   0  0  1  0  0  0  0  0  0  0  0  0
  -36.4670   61.6742   64.5653 C   0  0  0  0  0  0  0  0  0  0  0  0
  -37.1156   63.8336   65.6981 C   0  0  0  0  0  0  0  0  0  0  0  0
  -44.4389   59.4824   62.7000 C   0  0  0  0  0  0  0  0  0  0  0  0
  -40.5189   64.8321   66.3129 C   0  0  0  0  0  0  0  0  0  0  0  0
  -50.4570   56.5831   61.5394 C   0  0  0  0  0  0  0  0  0  0  0  0
  -36.6951   60.3509   64.0085 C   0  0  0  0  0  0  0  0  0  0  0  0
  -34.6259   57.1177   63.8369 C   0  0  0  0  0  0  0  0  0  0  0  0
  -38.7647   63.5281   63.3768 C   0  0  0  0  0  0  0  0  0  0  0  0
  -27.9886   56.7057   61.1372 C   0  0  0  0  0  0  0  0  0  0  0  0
  -43.4688   59.8779   63.8355 C   0  0  0  0  0  0  0  0  0  0  0  0
  -29.2433   57.5263   61.1957 C   0  0  0  0  0  0  0  0  0  0  0  0
  -42.3153   62.0756   63.3852 C   0  0  0  0  0  0  0  0  0  0  0  0
  -39.2793   64.9854   65.5820 N   0  0  1  0  0  4  0  0  0  0  0  0
  -45.7094   59.0326   63.4260 C   0  0  0  0  0  0  0  0  0  0  0  0
  -37.8074   67.7942   64.0032 O   0  0  0  0  0  0  0  0  0  0  0  0
  -37.3015   65.5206   63.9412 C   0  0  2  0  0  0  0  0  0  0  0  0
  -39.1350   63.7648   64.7722 C   0  0  0  0  0  0  0  0  0  0  0  0
  -38.1474   65.0061   66.4752 C   0  0  0  0  0  0  0  0  0  0  0  0
  -38.1507   66.4805   63.9684 C   0  0  0  0  0  0  0  0  0  0  0  0
  -35.8837   59.2112   64.4671 C   0  0  0  0  0  0  0  0  0  0  0  0
  -46.7934   58.8236   62.4232 C   0  0  0  0  0  0  0  0  0  0  0  0
  -35.4430   58.2892   63.3478 C   0  0  0  0  0  0  0  0  0  0  0  0
  -36.7060   65.9537   62.6386 C   0  0  0  0  0  0  0  0  0  0  0  0
  -37.4675   62.3992   65.3482 C   0  0  0  0  0  0  0  0  0  0  0  0
  -50.1162   55.2116   61.0252 C   0  0  0  0  0  0  0  0  0  0  0  0
  -40.1518   63.2452   62.7708 C   0  0  0  0  0  0  0  0  0  0  0  0
  -28.2369   55.2360   61.2099 C   0  0  0  0  0  0  0  0  0  0  0  0
  -33.3666   57.1050   62.9939 C   0  0  0  0  0  0  0  0  0  0  0  0
  -26.9809   54.4161   61.1567 C   0  0  0  0  0  0  0  0  0  0  0  0
  -30.2561   56.9833   62.1725 C   0  0  0  0  0  0  0  0  0  0  0  0
  -26.0899   54.7789   60.0098 C   0  0  0  0  0  0  0  0  0  0  0  0
  -51.1379   54.1684   61.3835 C   0  0  0  0  0  0  0  0  0  0  0  0
  -32.1205   57.4439   63.7703 C   0  0  0  0  0  0  0  0  0  0  0  0
  -31.0779   58.0393   62.8271 C   0  0  0  0  0  0  0  0  0  0  0  0
  -25.7412   53.5812   59.1516 C   0  0  0  0  0  0  0  0  0  0  0  0
  -48.1823   58.8024   62.8891 C   0  0  0  0  0  0  0  0  0  0  0  0
  -24.9919   53.9757   57.8933 C   0  0  0  0  0  0  0  0  0  0  0  0
  -49.3222   58.6705   61.9848 C   0  0  0  0  0  0  0  0  0  0  0  0
  -49.4147   57.6094   60.9700 C   0  0  0  0  0  0  0  0  0  0  0  0
  -36.5452   64.5867   64.6684 N   0  0  0  0  0  0  0  0  0  0  0  0
  -35.9570   67.0779   62.8107 O   0  0  0  0  0  0  0  0  0  0  0  0
  -39.4839   65.8294   63.0094 O   0  0  0  0  0  0  0  0  0  0  0  0
  -38.3351   64.4286   66.0985 O   0  0  0  0  0  0  0  0  0  0  0  0
  -36.8542   68.6493   61.4617 O   0  0  0  0  0  0  0  0  0  0  0  0
  -35.2101   68.9445   63.8108 O   0  0  0  0  0  0  0  0  0  0  0  0
  -36.6450   68.4105   63.1110 P   0  0  0  0  0  5  0  0  0  0  0  0
  1 14  1  0
  1 16  1  0
  2 17  1  0
  2 23  1  0
  3 16  1  0
  3 30  1  0
  4 12  1  0
  4 46  1  6
  4 20  1  0
  5 10  1  0
  5 28  1  0
  6 44  1  0
  6 28  1  0
  6 47  1  0
  7 14  1  0
  7 18  1  0
 17  8  1  1
  9 29  1  0
  9 43  1  0
 10 24  1  0
 11 26  1  0
 11 32  1  0
 12 30  1  0
 13 31  1  0
 13 15  1  0
 15 34  1  0
 17 21  1  0
 17 22  1  0
 18 25  1  0
 19 23  1  0
 19 50  1  0
 20 27  1  6
 20 44  1  0
 24 26  1  0
 25 40  1  0
 27 45  1  0
 29 36  1  0
 31 33  1  0
 32 37  1  0
 33 35  1  0
 34 38  1  0
 35 39  1  0
 37 38  1  0
 39 41  1  0
 40 42  1  0
 42 43  1  0
 45 50  1  0
 48 50  1  0
 49 50  1  0
M  CHG  1  17   1
M  END
$$$$
