
     RDKit          3D

 61 61  0  0  0  0  0  0  0  0999 V2000
  -38.9574   61.9959   61.6154 N   0  0  0  0  0  0  0  0  0  0  0  0
  -36.8689   63.0470   60.5991 C   0  0  0  0  0  0  0  0  0  0  0  0
  -36.0974   63.1008   61.7985 O   0  0  0  0  0  0  0  0  0  0  0  0
  -37.8544   61.8483   60.6415 C   0  0  1  0  0  0  0  0  0  0  0  0
  -36.0825   60.3142   59.9303 O   0  0  0  0  0  0  0  0  0  0  0  0
  -37.1129   60.4996   60.9118 C   0  0  2  0  0  0  0  0  0  0  0  0
  -40.1891   60.9167   60.0180 O   0  0  0  0  0  0  0  0  0  0  0  0
  -38.0475   59.2810   60.8739 C   0  0  0  0  0  0  0  0  0  0  0  0
  -37.1133   65.7664   63.0756 O   0  0  0  0  0  0  0  0  0  0  0  0
  -37.3307   58.0033   60.4062 C   0  0  0  0  0  0  0  0  0  0  0  0
  -34.1143   64.9012   64.8867 O   0  0  0  0  0  0  0  0  0  0  0  0
  -37.9477   56.7359   61.0161 C   0  0  0  0  0  0  0  0  0  0  0  0
  -33.0147   67.2501   63.7392 O   0  0  0  0  0  0  0  0  0  0  0  0
  -39.4046   56.5345   60.5753 C   0  0  0  0  0  0  0  0  0  0  0  0
  -34.0424   64.1848   62.0210 O   0  0  0  0  0  0  0  0  0  0  0  0
  -39.6104   55.2159   59.8295 C   0  0  0  0  0  0  0  0  0  0  0  0
  -30.9545   65.4100   61.3949 O   0  0  0  0  0  0  0  0  0  0  0  0
  -40.2007   55.4745   58.4401 C   0  0  0  0  0  0  0  0  0  0  0  0
  -32.8852   66.2614   66.6953 O   0  0  0  0  0  0  0  0  0  0  0  0
  -40.1580   54.2217   57.5654 C   0  0  0  0  0  0  0  0  0  0  0  0
  -33.9402   64.0253   67.2981 O   0  0  0  0  0  1  0  0  0  0  0  0
  -40.9648   54.3624   56.2693 C   0  0  0  0  0  0  0  0  0  0  0  0
  -35.4133   66.0345   66.7807 O   0  0  0  0  0  0  0  0  0  0  0  0
  -41.9028   53.1827   55.9995 C   0  0  0  0  0  0  0  0  0  0  0  0
  -41.8295   52.7406   54.5344 C   0  0  0  0  0  0  0  0  0  0  0  0
  -41.1893   51.3615   54.3455 C   0  0  0  0  0  0  0  0  0  0  0  0
  -41.8234   50.4730   53.2736 C   0  0  0  0  0  0  0  0  0  0  0  0
  -42.6509   51.2552   52.2509 C   0  0  0  0  0  0  0  0  0  0  0  0
  -42.7541   50.4976   50.9246 C   0  0  0  0  0  0  0  0  0  0  0  0
  -43.6793   51.2039   49.9470 C   0  0  0  0  0  0  0  0  0  0  0  0
  -40.1197   61.1679   61.4045 C   0  0  0  0  0  0  0  0  0  0  0  0
  -41.4401   61.7990   61.8733 C   0  0  0  0  0  0  0  0  0  0  0  0
  -41.5374   61.8063   63.4054 C   0  0  0  0  0  0  0  0  0  0  0  0
  -42.5365   62.8472   63.9125 C   0  0  0  0  0  0  0  0  0  0  0  0
  -41.8270   64.1629   64.2373 C   0  0  0  0  0  0  0  0  0  0  0  0
  -42.7702   65.1781   64.8844 C   0  0  0  0  0  0  0  0  0  0  0  0
  -42.0552   66.0986   65.8836 C   0  0  0  0  0  0  0  0  0  0  0  0
  -42.0468   65.5142   67.2986 C   0  0  0  0  0  0  0  0  0  0  0  0
  -40.7649   65.7906   68.0882 C   0  0  0  0  0  0  0  0  0  0  0  0
  -40.6031   65.0508   69.4171 C   0  0  0  0  0  0  0  0  0  0  0  0
  -39.1692   64.7898   69.8862 C   0  0  0  0  0  0  0  0  0  0  0  0
  -38.4733   63.6314   69.1677 C   0  0  0  0  0  0  0  0  0  0  0  0
  -36.9431   63.7170   69.1976 C   0  0  0  0  0  0  0  0  0  0  0  0
  -36.1879   62.6193   68.4405 C   0  0  0  0  0  0  0  0  0  0  0  0
  -34.7463   62.3659   68.8907 C   0  0  0  0  0  0  0  0  0  0  0  0
  -34.5276   60.9686   69.4762 C   0  0  0  0  0  0  0  0  0  0  0  0
  -35.0284   60.8555   70.9237 C   0  0  0  0  0  0  0  0  0  0  0  0
  -34.5740   59.5690   71.6211 C   0  0  0  0  0  0  0  0  0  0  0  0
  -33.1819   59.6813   72.2540 C   0  0  0  0  0  0  0  0  0  0  0  0
  -32.6813   58.3841   72.8980 C   0  0  0  0  0  0  0  0  0  0  0  0
  -31.1540   58.3227   73.0136 C   0  0  0  0  0  0  0  0  0  0  0  0
  -30.6268   57.5508   74.2313 C   0  0  0  0  0  0  0  0  0  0  0  0
  -31.3434   57.8681   75.5430 C   0  0  0  0  0  0  0  0  0  0  0  0
  -30.6908   57.1692   76.7263 C   0  0  0  0  0  0  0  0  0  0  0  0
  -35.4508   64.3622   61.9855 C   0  0  2  0  0  0  0  0  0  0  0  0
  -35.9670   64.9373   63.3278 C   0  0  1  0  0  0  0  0  0  0  0  0
  -34.8978   65.7651   64.0498 C   0  0  2  0  0  0  0  0  0  0  0  0
  -33.9743   66.4533   63.0384 C   0  0  2  0  0  0  0  0  0  0  0  0
  -33.3162   65.4261   62.0854 C   0  0  1  0  0  0  0  0  0  0  0  0
  -31.8627   65.0858   62.4501 C   0  0  0  0  0  0  0  0  0  0  0  0
  -34.0708   65.1978   66.4731 S   0  0  2  0  0  4  0  0  0  0  0  0
  1  4  1  0
  1 31  1  0
  2  3  1  0
  4  2  1  1
 55  3  1  1
  4  6  1  0
  6  5  1  6
  6  8  1  0
  7 31  1  0
  8 10  1  0
 56  9  1  6
 10 12  1  0
 57 11  1  1
 11 61  1  0
 12 14  1  0
 58 13  1  1
 14 16  1  0
 15 55  1  0
 15 59  1  0
 16 18  1  0
 17 60  1  0
 18 20  1  0
 61 19  1  6
 20 22  1  0
 21 61  1  0
 22 24  1  0
 23 61  1  0
 24 25  1  0
 25 26  1  0
 26 27  1  0
 27 28  1  0
 28 29  1  0
 29 30  1  0
 31 32  1  0
 32 33  1  0
 33 34  1  0
 34 35  1  0
 35 36  1  0
 36 37  1  0
 37 38  1  0
 38 39  1  0
 39 40  1  0
 40 41  1  0
 41 42  1  0
 42 43  1  0
 43 44  1  0
 44 45  1  0
 45 46  1  0
 46 47  1  0
 47 48  1  0
 48 49  1  0
 49 50  1  0
 50 51  1  0
 51 52  1  0
 52 53  1  0
 53 54  1  0
 55 56  1  0
 56 57  1  0
 57 58  1  0
 58 59  1  0
 59 60  1  1
M  CHG  1  21  -1
M  END
$$$$
