
     RDKit          3D

 61 61  0  0  0  0  0  0  0  0999 V2000
  -33.9428   65.5466   64.6471 N   0  0  0  0  0  0  0  0  0  0  0  0
  -32.1678   66.8488   63.3612 C   0  0  0  0  0  0  0  0  0  0  0  0
  -31.3408   66.7672   62.2011 O   0  0  0  0  0  0  0  0  0  0  0  0
  -33.1918   65.6821   63.3804 C   0  0  1  0  0  0  0  0  0  0  0  0
  -32.4487   64.1560   61.6147 O   0  0  0  0  0  0  0  0  0  0  0  0
  -32.5167   64.3147   63.0394 C   0  0  2  0  0  0  0  0  0  0  0  0
  -36.0947   65.9718   65.2967 O   0  0  0  0  0  0  0  0  0  0  0  0
  -33.2659   63.1102   63.6291 C   0  0  0  0  0  0  0  0  0  0  0  0
  -33.0228   67.9915   59.8686 O   0  0  0  0  0  0  0  0  0  0  0  0
  -32.3341   61.9215   63.9189 C   0  0  0  0  0  0  0  0  0  0  0  0
  -33.1386   70.4236   62.5321 O   0  0  0  0  0  0  0  0  0  0  0  0
  -33.0903   60.7230   64.5112 C   0  0  0  0  0  0  0  0  0  0  0  0
  -31.6688   72.0898   60.7694 O   0  0  0  0  0  0  0  0  0  0  0  0
  -32.1478   59.5628   64.8618 C   0  0  0  0  0  0  0  0  0  0  0  0
  -30.5748   68.9678   62.3380 O   0  0  0  0  0  0  0  0  0  0  0  0
  -32.3856   58.3337   63.9845 C   0  0  0  0  0  0  0  0  0  0  0  0
  -28.8273   70.7867   63.5428 O   0  0  0  0  0  0  0  0  0  0  0  0
  -31.3982   57.2201   64.3460 C   0  0  0  0  0  0  0  0  0  0  0  0
  -33.2504   72.7917   63.5382 O   0  0  0  0  0  0  0  0  0  0  0  0
  -30.8334   56.5384   63.0998 C   0  0  0  0  0  0  0  0  0  0  0  0
  -35.3782   71.4132   63.3176 O   0  0  0  0  0  1  0  0  0  0  0  0
  -31.3697   55.1170   62.8937 C   0  0  0  0  0  0  0  0  0  0  0  0
  -34.2381   72.3434   61.2417 O   0  0  0  0  0  0  0  0  0  0  0  0
  -30.3300   54.1450   62.3294 C   0  0  0  0  0  0  0  0  0  0  0  0
  -30.9456   52.7669   62.0662 C   0  0  0  0  0  0  0  0  0  0  0  0
  -30.8648   52.3338   60.5988 C   0  0  0  0  0  0  0  0  0  0  0  0
  -29.6159   51.5430   60.2045 C   0  0  0  0  0  0  0  0  0  0  0  0
  -29.7108   50.9171   58.8110 C   0  0  0  0  0  0  0  0  0  0  0  0
  -28.3402   50.4421   58.3215 C   0  0  0  0  0  0  0  0  0  0  0  0
  -28.3887   49.9937   56.8700 C   0  0  0  0  0  0  0  0  0  0  0  0
  -35.3034   65.0787   64.5439 C   0  0  0  0  0  0  0  0  0  0  0  0
  -35.5217   63.6478   65.0598 C   0  0  0  0  0  0  0  0  0  0  0  0
  -37.0158   63.2981   65.1078 C   0  0  0  0  0  0  0  0  0  0  0  0
  -37.8889   64.4338   64.5722 C   0  0  0  0  0  0  0  0  0  0  0  0
  -39.3699   64.0594   64.6519 C   0  0  0  0  0  0  0  0  0  0  0  0
  -39.6690   62.7466   63.9264 C   0  0  0  0  0  0  0  0  0  0  0  0
  -40.7145   61.8910   64.6558 C   0  0  0  0  0  0  0  0  0  0  0  0
  -41.1230   60.6627   63.8385 C   0  0  0  0  0  0  0  0  0  0  0  0
  -41.6472   59.4931   64.6755 C   0  0  0  0  0  0  0  0  0  0  0  0
  -42.8783   58.7612   64.1391 C   0  0  0  0  0  0  0  0  0  0  0  0
  -44.1664   59.5807   64.0224 C   0  0  0  0  0  0  0  0  0  0  0  0
  -45.4265   58.8400   64.4763 C   0  0  0  0  0  0  0  0  0  0  0  0
  -46.6149   59.0023   63.5219 C   0  0  0  0  0  0  0  0  0  0  0  0
  -46.7400   57.9543   62.4109 C   0  0  0  0  0  0  0  0  0  0  0  0
  -48.1666   57.6052   61.9773 C   0  0  0  0  0  0  0  0  0  0  0  0
  -48.5611   58.2173   60.6308 C   0  0  0  0  0  0  0  0  0  0  0  0
  -48.5709   59.7528   60.6663 C   0  0  0  0  0  0  0  0  0  0  0  0
  -48.8795   60.3862   59.3056 C   0  0  0  0  0  0  0  0  0  0  0  0
  -50.3613   60.7347   59.1208 C   0  0  0  0  0  0  0  0  0  0  0  0
  -51.1975   59.6058   58.5091 C   0  0  0  0  0  0  0  0  0  0  0  0
  -52.5699   60.0767   58.0144 C   0  0  0  0  0  0  0  0  0  0  0  0
  -53.4160   58.9969   57.3253 C   0  0  0  0  0  0  0  0  0  0  0  0
  -53.0639   57.5644   57.7236 C   0  0  0  0  0  0  0  0  0  0  0  0
  -54.0442   56.5586   57.1386 C   0  0  0  0  0  0  0  0  0  0  0  0
  -31.2278   68.0149   61.5121 C   0  0  2  0  0  0  0  0  0  0  0  0
  -32.6679   68.4743   61.1748 C   0  0  1  0  0  0  0  0  0  0  0  0
  -32.8075   70.0005   61.2009 C   0  0  2  0  0  0  0  0  0  0  0  0
  -31.4957   70.6695   60.7755 C   0  0  2  0  0  0  0  0  0  0  0  0
  -30.3155   70.2154   61.6683 C   0  0  1  0  0  0  0  0  0  0  0  0
  -29.9245   71.2388   62.7458 C   0  0  0  0  0  0  0  0  0  0  0  0
  -34.1037   71.7049   62.7153 S   0  0  2  0  0  4  0  0  0  0  0  0
  1  4  1  0
  1 31  1  0
  2  3  1  0
  4  2  1  1
 55  3  1  1
  4  6  1  0
  6  5  1  6
  6  8  1  0
  7 31  1  0
  8 10  1  0
 56  9  1  6
 10 12  1  0
 57 11  1  1
 11 61  1  0
 12 14  1  0
 58 13  1  1
 14 16  1  0
 15 55  1  0
 15 59  1  0
 16 18  1  0
 17 60  1  0
 18 20  1  0
 61 19  1  1
 20 22  1  0
 21 61  1  0
 22 24  1  0
 23 61  1  0
 24 25  1  0
 25 26  1  0
 26 27  1  0
 27 28  1  0
 28 29  1  0
 29 30  1  0
 31 32  1  0
 32 33  1  0
 33 34  1  0
 34 35  1  0
 35 36  1  0
 36 37  1  0
 37 38  1  0
 38 39  1  0
 39 40  1  0
 40 41  1  0
 41 42  1  0
 42 43  1  0
 43 44  1  0
 44 45  1  0
 45 46  1  0
 46 47  1  0
 47 48  1  0
 48 49  1  0
 49 50  1  0
 50 51  1  0
 51 52  1  0
 52 53  1  0
 53 54  1  0
 55 56  1  0
 56 57  1  0
 57 58  1  0
 58 59  1  0
 59 60  1  1
M  CHG  1  21  -1
M  END
$$$$
