
     RDKit          3D

 61 61  0  0  0  0  0  0  0  0999 V2000
  -37.2044   65.5593   62.8929 N   0  0  0  0  0  0  0  0  0  0  0  0
  -38.9358   67.4145   63.1386 C   0  0  0  0  0  0  0  0  0  0  0  0
  -37.7876   68.2593   63.2047 O   0  0  0  0  0  0  0  0  0  0  0  0
  -38.5387   65.9378   63.4062 C   0  0  1  0  0  0  0  0  0  0  0  0
  -39.0270   63.6311   62.7435 O   0  0  0  0  0  0  0  0  0  0  0  0
  -39.6028   64.9418   62.8428 C   0  0  2  0  0  0  0  0  0  0  0  0
  -34.9790   65.3125   63.3620 O   0  0  0  0  0  0  0  0  0  0  0  0
  -40.1336   65.3474   61.4595 C   0  0  0  0  0  0  0  0  0  0  0  0
  -36.0024   70.7716   63.7247 O   0  0  0  0  0  0  0  0  0  0  0  0
  -41.6489   65.6100   61.4639 C   0  0  0  0  0  0  0  0  0  0  0  0
  -39.2028   72.0558   62.6615 O   0  0  0  0  0  0  0  0  0  0  0  0
  -42.4609   64.3246   61.2461 C   0  0  0  0  0  0  0  0  0  0  0  0
  -39.3958   73.1142   65.2856 O   0  0  0  0  0  0  0  0  0  0  0  0
  -42.9942   63.7491   62.5659 C   0  0  0  0  0  0  0  0  0  0  0  0
  -39.3699   69.5926   64.2848 O   0  0  0  0  0  0  0  0  0  0  0  0
  -44.4751   64.0614   62.7813 C   0  0  0  0  0  0  0  0  0  0  0  0
  -41.7880   70.8927   66.4042 O   0  0  0  0  0  0  0  0  0  0  0  0
  -45.3486   63.0507   62.0321 C   0  0  0  0  0  0  0  0  0  0  0  0
  -40.6410   73.3135   60.9345 O   0  0  0  0  0  0  0  0  0  0  0  0
  -45.5587   61.7730   62.8446 C   0  0  0  0  0  0  0  0  0  0  0  0
  -38.1445   73.7856   61.0804 O   0  0  0  0  0  1  0  0  0  0  0  0
  -45.7988   60.5353   61.9723 C   0  0  0  0  0  0  0  0  0  0  0  0
  -39.7003   74.5524   62.9421 O   0  0  0  0  0  0  0  0  0  0  0  0
  -46.9022   59.6158   62.5026 C   0  0  0  0  0  0  0  0  0  0  0  0
  -46.3384   58.2494   62.9055 C   0  0  0  0  0  0  0  0  0  0  0  0
  -47.0403   57.0739   62.2178 C   0  0  0  0  0  0  0  0  0  0  0  0
  -46.3936   55.7018   62.4172 C   0  0  0  0  0  0  0  0  0  0  0  0
  -47.1414   54.5712   61.7064 C   0  0  0  0  0  0  0  0  0  0  0  0
  -46.3492   53.2623   61.7600 C   0  0  0  0  0  0  0  0  0  0  0  0
  -47.0579   52.1478   61.0076 C   0  0  0  0  0  0  0  0  0  0  0  0
  -36.2700   65.0276   63.8546 C   0  0  0  0  0  0  0  0  0  0  0  0
  -36.3999   63.5153   64.0944 C   0  0  0  0  0  0  0  0  0  0  0  0
  -35.1184   62.7770   63.6827 C   0  0  0  0  0  0  0  0  0  0  0  0
  -35.3775   61.2996   63.3841 C   0  0  0  0  0  0  0  0  0  0  0  0
  -34.1787   60.6757   62.6672 C   0  0  0  0  0  0  0  0  0  0  0  0
  -34.3747   59.1793   62.4190 C   0  0  0  0  0  0  0  0  0  0  0  0
  -33.4291   58.3101   63.2601 C   0  0  0  0  0  0  0  0  0  0  0  0
  -33.6416   56.8159   63.0032 C   0  0  0  0  0  0  0  0  0  0  0  0
  -32.3826   56.0659   62.5610 C   0  0  0  0  0  0  0  0  0  0  0  0
  -31.9147   54.9191   63.4584 C   0  0  0  0  0  0  0  0  0  0  0  0
  -30.5573   54.2955   63.1222 C   0  0  0  0  0  0  0  0  0  0  0  0
  -30.3486   52.8939   63.7004 C   0  0  0  0  0  0  0  0  0  0  0  0
  -30.0047   52.8876   65.1941 C   0  0  0  0  0  0  0  0  0  0  0  0
  -29.5344   51.5501   65.7758 C   0  0  0  0  0  0  0  0  0  0  0  0
  -28.4439   50.8223   64.9843 C   0  0  0  0  0  0  0  0  0  0  0  0
  -27.3613   50.1999   65.8695 C   0  0  0  0  0  0  0  0  0  0  0  0
  -27.4530   48.6675   65.9165 C   0  0  0  0  0  0  0  0  0  0  0  0
  -27.3856   48.0158   64.5313 C   0  0  0  0  0  0  0  0  0  0  0  0
  -28.5260   47.0243   64.2712 C   0  0  0  0  0  0  0  0  0  0  0  0
  -28.0657   45.6755   63.7082 C   0  0  0  0  0  0  0  0  0  0  0  0
  -29.2294   44.7286   63.3936 C   0  0  0  0  0  0  0  0  0  0  0  0
  -29.4908   43.6488   64.4528 C   0  0  0  0  0  0  0  0  0  0  0  0
  -30.7559   42.8241   64.2200 C   0  0  0  0  0  0  0  0  0  0  0  0
  -30.9561   41.7781   65.3064 C   0  0  0  0  0  0  0  0  0  0  0  0
  -37.9833   69.3955   64.0503 C   0  0  2  0  0  0  0  0  0  0  0  0
  -37.3709   70.6136   63.3156 C   0  0  1  0  0  0  0  0  0  0  0  0
  -38.1355   71.9091   63.6102 C   0  0  2  0  0  0  0  0  0  0  0  0
  -38.7249   71.8778   65.0248 C   0  0  2  0  0  0  0  0  0  0  0  0
  -39.6413   70.6466   65.2269 C   0  0  1  0  0  0  0  0  0  0  0  0
  -41.1408   70.9685   65.1318 C   0  0  0  0  0  0  0  0  0  0  0  0
  -39.3178   73.4408   61.8398 S   0  0  2  0  0  4  0  0  0  0  0  0
  1  4  1  0
  1 31  1  0
  2  3  1  0
  4  2  1  6
 55  3  1  6
  4  6  1  0
  6  5  1  6
  6  8  1  0
  7 31  1  0
  8 10  1  0
 56  9  1  1
 10 12  1  0
 57 11  1  6
 11 61  1  0
 12 14  1  0
 58 13  1  6
 14 16  1  0
 15 55  1  0
 15 59  1  0
 16 18  1  0
 17 60  1  0
 18 20  1  0
 61 19  1  6
 20 22  1  0
 21 61  1  0
 22 24  1  0
 23 61  1  0
 24 25  1  0
 25 26  1  0
 26 27  1  0
 27 28  1  0
 28 29  1  0
 29 30  1  0
 31 32  1  0
 32 33  1  0
 33 34  1  0
 34 35  1  0
 35 36  1  0
 36 37  1  0
 37 38  1  0
 38 39  1  0
 39 40  1  0
 40 41  1  0
 41 42  1  0
 42 43  1  0
 43 44  1  0
 44 45  1  0
 45 46  1  0
 46 47  1  0
 47 48  1  0
 48 49  1  0
 49 50  1  0
 50 51  1  0
 51 52  1  0
 52 53  1  0
 53 54  1  0
 55 56  1  0
 56 57  1  0
 57 58  1  0
 58 59  1  0
 59 60  1  6
M  CHG  1  21  -1
M  END
$$$$
