
     RDKit          3D

 61 61  0  0  0  0  0  0  0  0999 V2000
  -38.7906   62.1743   64.7195 N   0  0  0  0  0  0  0  0  0  0  0  0
  -39.8703   61.7517   66.9900 C   0  0  0  0  0  0  0  0  0  0  0  0
  -39.5247   61.4788   68.3475 O   0  0  0  0  0  0  0  0  0  0  0  0
  -38.6265   61.6019   66.0732 C   0  0  1  0  0  0  0  0  0  0  0  0
  -37.0871   59.8587   66.8414 O   0  0  0  0  0  0  0  0  0  0  0  0
  -38.1791   60.1102   65.9449 C   0  0  2  0  0  0  0  0  0  0  0  0
  -36.9661   63.4914   65.1317 O   0  0  0  0  0  0  0  0  0  0  0  0
  -37.7384   59.7344   64.5221 C   0  0  0  0  0  0  0  0  0  0  0  0
  -41.8342   59.5857   69.2701 O   0  0  0  0  0  0  0  0  0  0  0  0
  -37.5971   58.2149   64.3313 C   0  0  0  0  0  0  0  0  0  0  0  0
  -40.2011   60.6749   72.2981 O   0  0  0  0  0  0  0  0  0  0  0  0
  -37.3769   57.8333   62.8600 C   0  0  0  0  0  0  0  0  0  0  0  0
  -42.6451   61.9936   72.8735 O   0  0  0  0  0  0  0  0  0  0  0  0
  -36.4148   58.7979   62.1520 C   0  0  0  0  0  0  0  0  0  0  0  0
  -40.2866   62.7225   70.1697 O   0  0  0  0  0  0  0  0  0  0  0  0
  -35.0742   58.1431   61.8186 C   0  0  0  0  0  0  0  0  0  0  0  0
  -40.2187   65.1486   71.6794 O   0  0  0  0  0  0  0  0  0  0  0  0
  -34.7931   58.2363   60.3159 C   0  0  0  0  0  0  0  0  0  0  0  0
  -38.5848   59.7696   74.0871 O   0  0  0  0  0  0  0  0  0  0  0  0
  -33.9441   59.4607   59.9743 C   0  0  0  0  0  0  0  0  0  0  0  0
  -40.5376   58.3349   73.3096 O   0  0  0  0  0  1  0  0  0  0  0  0
  -33.4282   59.4540   58.5306 C   0  0  0  0  0  0  0  0  0  0  0  0
  -40.9586   60.4040   74.7296 O   0  0  0  0  0  0  0  0  0  0  0  0
  -32.1857   58.5829   58.3271 C   0  0  0  0  0  0  0  0  0  0  0  0
  -31.4084   59.0098   57.0778 C   0  0  0  0  0  0  0  0  0  0  0  0
  -30.4426   57.9367   56.5648 C   0  0  0  0  0  0  0  0  0  0  0  0
  -29.0401   57.9546   57.1758 C   0  0  0  0  0  0  0  0  0  0  0  0
  -28.2948   56.6270   57.0194 C   0  0  0  0  0  0  0  0  0  0  0  0
  -28.6065   55.6758   58.1778 C   0  0  0  0  0  0  0  0  0  0  0  0
  -27.3420   55.2396   58.8997 C   0  0  0  0  0  0  0  0  0  0  0  0
  -37.6156   62.7560   64.1179 C   0  0  0  0  0  0  0  0  0  0  0  0
  -37.9065   63.6812   62.9260 C   0  0  0  0  0  0  0  0  0  0  0  0
  -39.0044   63.0968   62.0261 C   0  0  0  0  0  0  0  0  0  0  0  0
  -38.8320   63.5141   60.5650 C   0  0  0  0  0  0  0  0  0  0  0  0
  -39.7140   64.7213   60.2408 C   0  0  0  0  0  0  0  0  0  0  0  0
  -41.1904   64.3384   60.1278 C   0  0  0  0  0  0  0  0  0  0  0  0
  -42.0737   65.5100   59.6758 C   0  0  0  0  0  0  0  0  0  0  0  0
  -43.5648   65.1858   59.7988 C   0  0  0  0  0  0  0  0  0  0  0  0
  -43.8753   63.6965   59.9687 C   0  0  0  0  0  0  0  0  0  0  0  0
  -44.9414   63.1067   59.0440 C   0  0  0  0  0  0  0  0  0  0  0  0
  -44.4405   62.4188   57.7712 C   0  0  0  0  0  0  0  0  0  0  0  0
  -45.5434   61.7725   56.9297 C   0  0  0  0  0  0  0  0  0  0  0  0
  -45.0159   60.9390   55.7564 C   0  0  0  0  0  0  0  0  0  0  0  0
  -45.7100   59.5944   55.5140 C   0  0  0  0  0  0  0  0  0  0  0  0
  -46.1912   58.8543   56.7654 C   0  0  0  0  0  0  0  0  0  0  0  0
  -47.4800   58.0584   56.5444 C   0  0  0  0  0  0  0  0  0  0  0  0
  -48.7384   58.8895   56.8350 C   0  0  0  0  0  0  0  0  0  0  0  0
  -49.7083   58.1995   57.7999 C   0  0  0  0  0  0  0  0  0  0  0  0
  -51.0619   57.8639   57.1626 C   0  0  0  0  0  0  0  0  0  0  0  0
  -52.1824   58.8458   57.5208 C   0  0  0  0  0  0  0  0  0  0  0  0
  -53.3971   58.7340   56.5924 C   0  0  0  0  0  0  0  0  0  0  0  0
  -54.5927   59.6153   56.9804 C   0  0  0  0  0  0  0  0  0  0  0  0
  -55.8097   59.4718   56.0677 C   0  0  0  0  0  0  0  0  0  0  0  0
  -57.1040   59.8008   56.7965 C   0  0  0  0  0  0  0  0  0  0  0  0
  -40.6131   61.6910   69.2500 C   0  0  2  0  0  0  0  0  0  0  0  0
  -40.8527   60.3509   69.9885 C   0  0  1  0  0  0  0  0  0  0  0  0
  -41.3368   60.5637   71.4273 C   0  0  2  0  0  0  0  0  0  0  0  0
  -42.1734   61.8438   71.5311 C   0  0  2  0  0  0  0  0  0  0  0  0
  -41.3808   63.0776   71.0351 C   0  0  1  0  0  0  0  0  0  0  0  0
  -40.8043   63.9399   72.1689 C   0  0  0  0  0  0  0  0  0  0  0  0
  -40.1046   59.6831   73.5684 S   0  0  2  0  0  4  0  0  0  0  0  0
  1  4  1  0
  1 31  1  0
  2  3  1  0
  4  2  1  6
 55  3  1  6
  4  6  1  0
  6  5  1  1
  6  8  1  0
  7 31  1  0
  8 10  1  0
 56  9  1  6
 10 12  1  0
 57 11  1  1
 11 61  1  0
 12 14  1  0
 58 13  1  1
 14 16  1  0
 15 55  1  0
 15 59  1  0
 16 18  1  0
 17 60  1  0
 18 20  1  0
 61 19  1  1
 20 22  1  0
 21 61  1  0
 22 24  1  0
 23 61  1  0
 24 25  1  0
 25 26  1  0
 26 27  1  0
 27 28  1  0
 28 29  1  0
 29 30  1  0
 31 32  1  0
 32 33  1  0
 33 34  1  0
 34 35  1  0
 35 36  1  0
 36 37  1  0
 37 38  1  0
 38 39  1  0
 39 40  1  0
 40 41  1  0
 41 42  1  0
 42 43  1  0
 43 44  1  0
 44 45  1  0
 45 46  1  0
 46 47  1  0
 47 48  1  0
 48 49  1  0
 49 50  1  0
 50 51  1  0
 51 52  1  0
 52 53  1  0
 53 54  1  0
 55 56  1  0
 56 57  1  0
 57 58  1  0
 58 59  1  0
 59 60  1  1
M  CHG  1  21  -1
M  END
$$$$
