
     RDKit          3D

 61 61  0  0  0  0  0  0  0  0999 V2000
  -34.5933   65.8237   64.7100 N   0  0  0  0  0  0  0  0  0  0  0  0
  -32.1962   66.6363   64.4045 C   0  0  0  0  0  0  0  0  0  0  0  0
  -32.4464   67.7584   65.2501 O   0  0  0  0  0  0  0  0  0  0  0  0
  -33.5157   66.1458   63.7499 C   0  0  1  0  0  0  0  0  0  0  0  0
  -34.5305   64.2761   62.5362 O   0  0  0  0  0  0  0  0  0  0  0  0
  -33.2762   64.9129   62.8201 C   0  0  2  0  0  0  0  0  0  0  0  0
  -35.5527   65.0437   62.7853 O   0  0  0  0  0  0  0  0  0  0  0  0
  -32.3284   63.8714   63.4339 C   0  0  0  0  0  0  0  0  0  0  0  0
  -31.1790   68.6392   62.5323 O   0  0  0  0  0  0  0  0  0  0  0  0
  -31.2041   63.4576   62.4696 C   0  0  0  0  0  0  0  0  0  0  0  0
  -34.7320   69.1493   62.1594 O   0  0  0  0  0  0  0  0  0  0  0  0
  -30.1322   62.6024   63.1615 C   0  0  0  0  0  0  0  0  0  0  0  0
  -34.0904   71.9072   61.9987 O   0  0  0  0  0  0  0  0  0  0  0  0
  -30.1119   61.1622   62.6296 C   0  0  0  0  0  0  0  0  0  0  0  0
  -33.7156   69.6823   64.8821 O   0  0  0  0  0  0  0  0  0  0  0  0
  -28.8823   60.3850   63.0999 C   0  0  0  0  0  0  0  0  0  0  0  0
  -35.3451   72.5326   65.4317 O   0  0  0  0  0  0  0  0  0  0  0  0
  -28.8936   58.9666   62.5220 C   0  0  0  0  0  0  0  0  0  0  0  0
  -36.5705   70.4237   60.8834 O   0  0  0  0  0  0  0  0  0  0  0  0
  -27.9210   58.0473   63.2605 C   0  0  0  0  0  0  0  0  0  0  0  0
  -36.1493   67.9672   60.3689 O   0  0  0  0  0  1  0  0  0  0  0  0
  -28.0191   56.5831   62.8167 C   0  0  0  0  0  0  0  0  0  0  0  0
  -34.4449   69.7268   59.6808 O   0  0  0  0  0  0  0  0  0  0  0  0
  -27.0502   55.6530   63.5519 C   0  0  0  0  0  0  0  0  0  0  0  0
  -27.2499   54.1953   63.1247 C   0  0  0  0  0  0  0  0  0  0  0  0
  -27.7798   53.2984   64.2481 C   0  0  0  0  0  0  0  0  0  0  0  0
  -28.3731   51.9586   63.8083 C   0  0  0  0  0  0  0  0  0  0  0  0
  -27.3190   50.8678   63.6040 C   0  0  0  0  0  0  0  0  0  0  0  0
  -27.9707   49.5160   63.3016 C   0  0  0  0  0  0  0  0  0  0  0  0
  -28.3493   48.7794   64.5762 C   0  0  0  0  0  0  0  0  0  0  0  0
  -35.7927   65.2391   64.1618 C   0  0  0  0  0  0  0  0  0  0  0  0
  -37.0545   66.0977   64.3407 C   0  0  0  0  0  0  0  0  0  0  0  0
  -38.3184   65.2267   64.3642 C   0  0  0  0  0  0  0  0  0  0  0  0
  -39.5635   66.0313   64.7401 C   0  0  0  0  0  0  0  0  0  0  0  0
  -40.6657   65.1077   65.2619 C   0  0  0  0  0  0  0  0  0  0  0  0
  -42.0596   65.6970   65.0408 C   0  0  0  0  0  0  0  0  0  0  0  0
  -43.1697   64.6395   65.1198 C   0  0  0  0  0  0  0  0  0  0  0  0
  -44.5649   65.2637   65.0334 C   0  0  0  0  0  0  0  0  0  0  0  0
  -45.4295   64.7218   63.8923 C   0  0  0  0  0  0  0  0  0  0  0  0
  -46.6747   65.5321   63.5287 C   0  0  0  0  0  0  0  0  0  0  0  0
  -47.4856   65.0407   62.3265 C   0  0  0  0  0  0  0  0  0  0  0  0
  -47.2688   63.5652   61.9823 C   0  0  0  0  0  0  0  0  0  0  0  0
  -48.5448   62.8417   61.5374 C   0  0  0  0  0  0  0  0  0  0  0  0
  -48.3841   61.3732   61.1297 C   0  0  0  0  0  0  0  0  0  0  0  0
  -48.1192   61.1161   59.6435 C   0  0  0  0  0  0  0  0  0  0  0  0
  -47.4854   59.7509   59.3649 C   0  0  0  0  0  0  0  0  0  0  0  0
  -48.1664   59.0160   58.2008 C   0  0  0  0  0  0  0  0  0  0  0  0
  -48.1607   57.4923   58.3626 C   0  0  0  0  0  0  0  0  0  0  0  0
  -48.9767   56.7650   57.2873 C   0  0  0  0  0  0  0  0  0  0  0  0
  -48.9645   55.2384   57.4188 C   0  0  0  0  0  0  0  0  0  0  0  0
  -49.6670   54.5307   56.2546 C   0  0  0  0  0  0  0  0  0  0  0  0
  -50.6806   53.4542   56.6671 C   0  0  0  0  0  0  0  0  0  0  0  0
  -50.8235   52.3026   55.6732 C   0  0  0  0  0  0  0  0  0  0  0  0
  -51.7458   51.2132   56.1999 C   0  0  0  0  0  0  0  0  0  0  0  0
  -32.5277   68.9896   64.5278 C   0  0  2  0  0  0  0  0  0  0  0  0
  -32.5301   68.6280   63.0218 C   0  0  1  0  0  0  0  0  0  0  0  0
  -33.3717   69.6066   62.1949 C   0  0  2  0  0  0  0  0  0  0  0  0
  -33.3317   71.0085   62.8134 C   0  0  2  0  0  0  0  0  0  0  0  0
  -33.8089   70.9893   64.2859 C   0  0  1  0  0  0  0  0  0  0  0  0
  -35.2546   71.4746   64.4747 C   0  0  0  0  0  0  0  0  0  0  0  0
  -35.5273   69.2064   60.7555 S   0  0  2  0  0  4  0  0  0  0  0  0
  1  4  1  0
  1 31  1  0
  2  3  1  0
  4  2  1  1
 55  3  1  1
  4  6  1  0
  6  5  1  1
  6  8  1  0
  7 31  1  0
  8 10  1  0
 56  9  1  6
 10 12  1  0
 57 11  1  1
 11 61  1  0
 12 14  1  0
 58 13  1  6
 14 16  1  0
 15 55  1  0
 15 59  1  0
 16 18  1  0
 17 60  1  0
 18 20  1  0
 61 19  1  1
 20 22  1  0
 21 61  1  0
 22 24  1  0
 23 61  1  0
 24 25  1  0
 25 26  1  0
 26 27  1  0
 27 28  1  0
 28 29  1  0
 29 30  1  0
 31 32  1  0
 32 33  1  0
 33 34  1  0
 34 35  1  0
 35 36  1  0
 36 37  1  0
 37 38  1  0
 38 39  1  0
 39 40  1  0
 40 41  1  0
 41 42  1  0
 42 43  1  0
 43 44  1  0
 44 45  1  0
 45 46  1  0
 46 47  1  0
 47 48  1  0
 48 49  1  0
 49 50  1  0
 50 51  1  0
 51 52  1  0
 52 53  1  0
 53 54  1  0
 55 56  1  0
 56 57  1  0
 57 58  1  0
 58 59  1  0
 59 60  1  6
M  CHG  1  21  -1
M  END
$$$$
