
     RDKit          3D

 53 52  0  0  0  0  0  0  0  0999 V2000
  -31.8670   45.4365   61.9620 C   0  0  0  0  0  0  0  0  0  0  0  0
  -37.1661   61.4630   60.3994 O   0  0  0  0  0  0  0  0  0  0  0  0
  -35.8480   66.8197   63.9534 P   0  0  0  0  0  5  0  0  0  0  0  0
  -32.2365   46.8856   61.9336 C   0  0  0  0  0  0  0  0  0  0  0  0
  -35.8086   62.9103   61.4804 O   0  0  0  0  0  0  0  0  0  0  0  0
  -31.5454   47.6926   63.0220 C   0  0  0  0  0  0  0  0  0  0  0  0
  -36.2003   65.4776   63.3386 O   0  0  0  0  0  0  0  0  0  0  0  0
  -31.9198   49.1297   62.8086 C   0  0  0  0  0  0  0  0  0  0  0  0
  -35.4629   67.4200   62.4470 O   0  0  0  0  0  1  0  0  0  0  0  0
  -31.0675   50.1078   63.5917 C   0  0  0  0  0  0  0  0  0  0  0  0
  -37.3533   67.0925   64.5791 O   0  0  0  0  0  0  0  0  0  0  0  0
  -30.7531   51.2745   62.6950 C   0  0  0  0  0  0  0  0  0  0  0  0
  -34.7170   66.1187   64.9147 O   0  0  0  0  0  0  0  0  0  0  0  0
  -31.5633   52.5147   62.9944 C   0  0  0  0  0  0  0  0  0  0  0  0
  -35.2691   69.4189   65.5616 O   0  0  0  0  0  0  0  0  0  0  0  0
  -31.0706   53.6188   62.1122 C   0  0  0  0  0  0  0  0  0  0  0  0
  -32.0889   68.3363   65.8106 O   0  0  0  0  0  0  0  0  0  0  0  0
  -32.1046   54.2181   61.2219 C   0  0  0  0  0  0  0  0  0  0  0  0
  -38.0291   63.3517   64.2372 O   0  0  0  0  0  0  0  0  0  0  0  0
  -32.8305   55.3988   61.8114 C   0  0  0  0  0  0  0  0  0  0  0  0
  -39.0504   64.5828   65.8476 O   0  0  0  0  0  0  0  0  0  0  0  0
  -34.2359   55.4821   61.2609 C   0  0  0  0  0  0  0  0  0  0  0  0
  -34.2546   55.7239   59.7785 C   0  0  0  0  0  0  0  0  0  0  0  0
  -35.4584   56.5110   59.3694 C   0  0  0  0  0  0  0  0  0  0  0  0
  -36.0310   57.4303   60.4007 C   0  0  0  0  0  0  0  0  0  0  0  0
  -36.0812   58.8803   59.9717 C   0  0  0  0  0  0  0  0  0  0  0  0
  -34.7990   59.6041   60.2945 C   0  0  0  0  0  0  0  0  0  0  0  0
  -34.9019   61.0913   60.1402 C   0  0  0  0  0  0  0  0  0  0  0  0
  -35.9350   61.5794   61.1136 C   0  0  2  0  0  0  0  0  0  0  0  0
  -36.1817   62.9778   62.8484 C   0  0  0  0  0  0  0  0  0  0  0  0
  -37.5736   63.6263   62.9444 C   0  0  2  0  0  0  0  0  0  0  0  0
  -37.3887   65.1456   62.7832 C   0  0  0  0  0  0  0  0  0  0  0  0
  -33.4453   66.6677   64.8281 C   0  0  0  0  0  0  0  0  0  0  0  0
  -33.4277   67.9341   65.6534 C   0  0  2  0  0  0  0  0  0  0  0  0
  -34.1224   69.0301   64.8723 C   0  0  0  0  0  0  0  0  0  0  0  0
  -39.1299   64.1232   64.5434 C   0  0  0  0  0  0  0  0  0  0  0  0
  -39.4591   65.2238   63.5521 C   0  0  0  0  0  0  0  0  0  0  0  0
  -40.7825   65.7997   63.9085 C   0  0  0  0  0  0  0  0  0  0  0  0
  -41.5862   65.1911   64.9723 C   0  0  0  0  0  0  0  0  0  0  0  0
  -42.8632   65.7841   65.4053 C   0  0  0  0  0  0  0  0  0  0  0  0
  -44.1069   65.1925   64.8356 C   0  0  0  0  0  0  0  0  0  0  0  0
  -45.1634   66.2967   64.5756 C   0  0  0  0  0  0  0  0  0  0  0  0
  -46.4942   65.6561   64.9955 C   0  0  0  0  0  0  0  0  0  0  0  0
  -46.6130   65.7133   66.4812 C   0  0  0  0  0  0  0  0  0  0  0  0
  -47.1327   67.0712   66.9534 C   0  0  0  0  0  0  0  0  0  0  0  0
  -48.1993   66.6897   68.0242 C   0  0  0  0  0  0  0  0  0  0  0  0
  -48.7678   67.9196   68.6216 C   0  0  0  0  0  0  0  0  0  0  0  0
  -50.0588   67.8404   69.2942 C   0  0  0  0  0  0  0  0  0  0  0  0
  -50.9323   66.6754   69.3071 C   0  0  0  0  0  0  0  0  0  0  0  0
  -52.2036   66.5716   68.5931 C   0  0  0  0  0  0  0  0  0  0  0  0
  -52.3587   67.3873   67.3361 C   0  0  0  0  0  0  0  0  0  0  0  0
  -53.6852   67.0478   66.6801 C   0  0  0  0  0  0  0  0  0  0  0  0
  -54.8460   67.4287   67.5833 C   0  0  0  0  0  0  0  0  0  0  0  0
  1  4  1  0
 29  2  1  6
  3  7  1  0
  3  9  1  0
  3 11  1  0
  3 13  1  0
  4  6  1  0
  5 29  1  0
  5 30  1  0
  6  8  1  0
  7 32  1  0
  8 10  1  0
 10 12  1  0
 12 14  1  0
 13 33  1  0
 14 16  1  0
 15 35  1  0
 16 18  1  0
 34 17  1  6
 18 20  1  0
 19 31  1  0
 19 36  1  0
 20 22  1  0
 21 36  1  0
 22 23  1  0
 23 24  1  0
 24 25  1  0
 25 26  1  0
 26 27  1  0
 27 28  1  0
 28 29  1  0
 31 30  1  1
 31 32  1  0
 33 34  1  0
 34 35  1  0
 36 37  1  0
 37 38  1  0
 38 39  1  0
 39 40  1  0
 40 41  1  0
 41 42  1  0
 42 43  1  0
 43 44  1  0
 44 45  1  0
 45 46  1  0
 46 47  1  0
 47 48  1  0
 48 49  1  0
 49 50  1  0
 50 51  1  0
 51 52  1  0
 52 53  1  0
M  CHG  1   9  -1
M  END
$$$$
