
     RDKit          3D

 53 52  0  0  0  0  0  0  0  0999 V2000
  -23.8198   54.9815   68.3132 C   0  0  0  0  0  0  0  0  0  0  0  0
  -36.1721   61.0891   59.1789 O   0  0  0  0  0  0  0  0  0  0  0  0
  -39.1098   64.2104   61.4465 P   0  0  0  0  0  5  0  0  0  0  0  0
  -25.1021   54.4585   67.7481 C   0  0  0  0  0  0  0  0  0  0  0  0
  -38.3547   61.6663   59.0846 O   0  0  0  0  0  0  0  0  0  0  0  0
  -25.0985   54.4031   66.2282 C   0  0  0  0  0  0  0  0  0  0  0  0
  -39.3813   63.9219   59.9814 O   0  0  0  0  0  0  0  0  0  0  0  0
  -26.5236   54.2336   65.7910 C   0  0  0  0  0  0  0  0  0  0  0  0
  -40.2012   65.4695   61.4112 O   0  0  0  0  0  1  0  0  0  0  0  0
  -26.6963   54.1371   64.2886 C   0  0  0  0  0  0  0  0  0  0  0  0
  -39.5974   62.7239   61.9800 O   0  0  0  0  0  0  0  0  0  0  0  0
  -28.1602   53.9434   63.9988 C   0  0  0  0  0  0  0  0  0  0  0  0
  -37.5149   64.4458   61.1378 O   0  0  0  0  0  0  0  0  0  0  0  0
  -29.0022   55.1747   64.2417 C   0  0  0  0  0  0  0  0  0  0  0  0
  -33.3832   65.1608   63.1196 O   0  0  0  0  0  0  0  0  0  0  0  0
  -29.0902   55.9409   62.9589 C   0  0  0  0  0  0  0  0  0  0  0  0
  -35.3815   65.4297   60.6728 O   0  0  0  0  0  0  0  0  0  0  0  0
  -30.2313   56.8957   62.8765 C   0  0  0  0  0  0  0  0  0  0  0  0
  -41.2230   62.3612   57.3962 O   0  0  0  0  0  0  0  0  0  0  0  0
  -31.3792   56.5811   63.7996 C   0  0  0  0  0  0  0  0  0  0  0  0
  -41.9240   60.3153   56.7072 O   0  0  0  0  0  0  0  0  0  0  0  0
  -32.5535   57.4874   63.5084 C   0  0  0  0  0  0  0  0  0  0  0  0
  -33.1681   57.2112   62.1659 C   0  0  0  0  0  0  0  0  0  0  0  0
  -34.1285   58.2883   61.7738 C   0  0  0  0  0  0  0  0  0  0  0  0
  -33.8947   58.9329   60.4448 C   0  0  0  0  0  0  0  0  0  0  0  0
  -35.1640   59.3058   59.7107 C   0  0  0  0  0  0  0  0  0  0  0  0
  -36.3609   59.3058   60.6270 C   0  0  0  0  0  0  0  0  0  0  0  0
  -37.6620   59.4810   59.9040 C   0  0  0  0  0  0  0  0  0  0  0  0
  -37.4872   60.5982   58.9168 C   0  0  2  0  0  0  0  0  0  0  0  0
  -38.9739   61.8711   57.8236 C   0  0  0  0  0  0  0  0  0  0  0  0
  -40.0873   62.9197   57.9900 C   0  0  2  0  0  0  0  0  0  0  0  0
  -40.3371   63.0947   59.4985 C   0  0  0  0  0  0  0  0  0  0  0  0
  -36.6583   64.1366   62.1851 C   0  0  0  0  0  0  0  0  0  0  0  0
  -35.2713   64.6026   61.8054 C   0  0  2  0  0  0  0  0  0  0  0  0
  -34.7283   65.4670   62.9243 C   0  0  0  0  0  0  0  0  0  0  0  0
  -41.3571   61.0345   57.7464 C   0  0  0  0  0  0  0  0  0  0  0  0
  -40.1125   60.3725   58.3080 C   0  0  0  0  0  0  0  0  0  0  0  0
  -39.9586   60.7847   59.7281 C   0  0  0  0  0  0  0  0  0  0  0  0
  -41.1374   61.1482   60.5195 C   0  0  0  0  0  0  0  0  0  0  0  0
  -41.7938   60.1765   61.4110 C   0  0  0  0  0  0  0  0  0  0  0  0
  -42.3735   60.7095   62.6764 C   0  0  0  0  0  0  0  0  0  0  0  0
  -42.9415   59.5554   63.5415 C   0  0  0  0  0  0  0  0  0  0  0  0
  -42.1867   59.6716   64.8735 C   0  0  0  0  0  0  0  0  0  0  0  0
  -43.0125   60.4613   65.8323 C   0  0  0  0  0  0  0  0  0  0  0  0
  -42.6217   60.1748   67.2820 C   0  0  0  0  0  0  0  0  0  0  0  0
  -41.7402   61.4033   67.6609 C   0  0  0  0  0  0  0  0  0  0  0  0
  -42.5151   62.3263   68.5215 C   0  0  0  0  0  0  0  0  0  0  0  0
  -42.2047   63.7501   68.4806 C   0  0  0  0  0  0  0  0  0  0  0  0
  -42.7304   64.7540   69.3950 C   0  0  0  0  0  0  0  0  0  0  0  0
  -41.9180   65.6793   70.1827 C   0  0  0  0  0  0  0  0  0  0  0  0
  -42.6333   66.8123   70.8716 C   0  0  0  0  0  0  0  0  0  0  0  0
  -41.6134   67.7057   71.5548 C   0  0  0  0  0  0  0  0  0  0  0  0
  -42.2983   68.8658   72.2573 C   0  0  0  0  0  0  0  0  0  0  0  0
  1  4  1  0
 29  2  1  1
  3  7  1  0
  3  9  1  0
  3 11  1  0
  3 13  1  0
  4  6  1  0
  5 29  1  0
  5 30  1  0
  6  8  1  0
  7 32  1  0
  8 10  1  0
 10 12  1  0
 12 14  1  0
 13 33  1  0
 14 16  1  0
 15 35  1  0
 16 18  1  0
 34 17  1  6
 18 20  1  0
 19 31  1  0
 19 36  1  0
 20 22  1  0
 21 36  1  0
 22 23  1  0
 23 24  1  0
 24 25  1  0
 25 26  1  0
 26 27  1  0
 27 28  1  0
 28 29  1  0
 31 30  1  1
 31 32  1  0
 33 34  1  0
 34 35  1  0
 36 37  1  0
 37 38  1  0
 38 39  1  0
 39 40  1  0
 40 41  1  0
 41 42  1  0
 42 43  1  0
 43 44  1  0
 44 45  1  0
 45 46  1  0
 46 47  1  0
 47 48  1  0
 48 49  1  0
 49 50  1  0
 50 51  1  0
 51 52  1  0
 52 53  1  0
M  CHG  1   9  -1
M  END
$$$$
