
     RDKit          3D

 53 52  0  0  0  0  0  0  0  0999 V2000
  -50.0981   63.9979   65.7009 C   0  0  0  0  0  0  0  0  0  0  0  0
  -34.5757   60.6532   61.9180 O   0  0  0  0  0  0  0  0  0  0  0  0
  -35.3867   66.3660   65.3300 P   0  0  0  0  0  5  0  0  0  0  0  0
  -50.7348   62.6802   66.0098 C   0  0  0  0  0  0  0  0  0  0  0  0
  -36.0838   62.1879   62.6081 O   0  0  0  0  0  0  0  0  0  0  0  0
  -49.8841   61.4968   65.5746 C   0  0  0  0  0  0  0  0  0  0  0  0
  -35.1916   64.9503   64.8190 O   0  0  0  0  0  0  0  0  0  0  0  0
  -49.4578   60.7797   66.8215 C   0  0  0  0  0  0  0  0  0  0  0  0
  -36.5329   66.6438   64.1523 O   0  0  0  0  0  1  0  0  0  0  0  0
  -48.5842   59.5686   66.5636 C   0  0  0  0  0  0  0  0  0  0  0  0
  -35.8678   65.9090   66.8438 O   0  0  0  0  0  0  0  0  0  0  0  0
  -47.4261   59.6160   67.5231 C   0  0  0  0  0  0  0  0  0  0  0  0
  -33.8002   66.7079   65.0838 O   0  0  0  0  0  0  0  0  0  0  0  0
  -46.0731   59.6572   66.8508 C   0  0  0  0  0  0  0  0  0  0  0  0
  -34.1761   67.5269   61.8947 O   0  0  0  0  0  0  0  0  0  0  0  0
  -45.1185   58.8483   67.6722 C   0  0  0  0  0  0  0  0  0  0  0  0
  -33.4398   65.2949   62.2052 O   0  0  0  0  0  0  0  0  0  0  0  0
  -43.9589   58.2927   66.9190 C   0  0  0  0  0  0  0  0  0  0  0  0
  -34.2363   65.0251   61.8724 O   0  0  0  0  0  0  0  0  0  0  0  0
  -42.8678   57.7178   67.7837 C   0  0  0  0  0  0  0  0  0  0  0  0
  -34.8026   65.8848   59.8495 O   0  0  0  0  0  0  0  0  0  0  0  0
  -41.6414   58.6006   67.7415 C   0  0  0  0  0  0  0  0  0  0  0  0
  -40.5855   58.0664   66.8162 C   0  0  0  0  0  0  0  0  0  0  0  0
  -39.5656   59.1108   66.4917 C   0  0  0  0  0  0  0  0  0  0  0  0
  -38.3128   58.6308   65.8310 C   0  0  0  0  0  0  0  0  0  0  0  0
  -37.3336   59.7342   65.4951 C   0  0  0  0  0  0  0  0  0  0  0  0
  -36.3234   59.2921   64.4675 C   0  0  0  0  0  0  0  0  0  0  0  0
  -35.3686   60.3765   64.0689 C   0  0  0  0  0  0  0  0  0  0  0  0
  -35.7577   60.8435   62.6964 C   0  0  2  0  0  0  0  0  0  0  0  0
  -34.9981   62.8123   61.9398 C   0  0  0  0  0  0  0  0  0  0  0  0
  -34.5247   64.0069   62.7858 C   0  0  2  0  0  0  0  0  0  0  0  0
  -35.7036   64.4411   63.6747 C   0  0  0  0  0  0  0  0  0  0  0  0
  -33.0586   65.6874   64.5053 C   0  0  0  0  0  0  0  0  0  0  0  0
  -32.7117   66.1059   63.0947 C   0  0  2  0  0  0  0  0  0  0  0  0
  -33.1910   67.5265   62.8799 C   0  0  0  0  0  0  0  0  0  0  0  0
  -35.2379   65.1381   60.9317 C   0  0  0  0  0  0  0  0  0  0  0  0
  -35.9031   63.8383   60.5186 C   0  0  0  0  0  0  0  0  0  0  0  0
  -37.0063   63.5487   61.4721 C   0  0  0  0  0  0  0  0  0  0  0  0
  -37.6218   62.2189   61.5015 C   0  0  0  0  0  0  0  0  0  0  0  0
  -39.0413   62.0369   61.8507 C   0  0  0  0  0  0  0  0  0  0  0  0
  -40.0390   62.7516   61.0050 C   0  0  0  0  0  0  0  0  0  0  0  0
  -41.3049   61.8795   60.8051 C   0  0  0  0  0  0  0  0  0  0  0  0
  -41.0028   61.0538   59.5463 C   0  0  0  0  0  0  0  0  0  0  0  0
  -42.2726   60.8291   58.7967 C   0  0  0  0  0  0  0  0  0  0  0  0
  -42.0217   60.1353   57.4579 C   0  0  0  0  0  0  0  0  0  0  0  0
  -43.4590   59.9292   56.8907 C   0  0  0  0  0  0  0  0  0  0  0  0
  -43.6854   58.4916   56.6170 C   0  0  0  0  0  0  0  0  0  0  0  0
  -45.0137   57.9354   56.8438 C   0  0  0  0  0  0  0  0  0  0  0  0
  -45.3346   56.8802   57.7945 C   0  0  0  0  0  0  0  0  0  0  0  0
  -45.6180   55.4903   57.4417 C   0  0  0  0  0  0  0  0  0  0  0  0
  -45.9894   54.5548   58.5626 C   0  0  0  0  0  0  0  0  0  0  0  0
  -46.7925   53.3952   58.0010 C   0  0  0  0  0  0  0  0  0  0  0  0
  -47.1502   52.4064   59.0976 C   0  0  0  0  0  0  0  0  0  0  0  0
  1  4  1  0
 29  2  1  6
  3  7  1  0
  3  9  1  0
  3 11  1  0
  3 13  1  0
  4  6  1  0
  5 29  1  0
  5 30  1  0
  6  8  1  0
  7 32  1  0
  8 10  1  0
 10 12  1  0
 12 14  1  0
 13 33  1  0
 14 16  1  0
 15 35  1  0
 16 18  1  0
 34 17  1  6
 18 20  1  0
 19 31  1  0
 19 36  1  0
 20 22  1  0
 21 36  1  0
 22 23  1  0
 23 24  1  0
 24 25  1  0
 25 26  1  0
 26 27  1  0
 27 28  1  0
 28 29  1  0
 31 30  1  6
 31 32  1  0
 33 34  1  0
 34 35  1  0
 36 37  1  0
 37 38  1  0
 38 39  1  0
 39 40  1  0
 40 41  1  0
 41 42  1  0
 42 43  1  0
 43 44  1  0
 44 45  1  0
 45 46  1  0
 46 47  1  0
 47 48  1  0
 48 49  1  0
 49 50  1  0
 50 51  1  0
 51 52  1  0
 52 53  1  0
M  CHG  1   9  -1
M  END
$$$$
