
     RDKit          3D

 18 17  0  0  0  0  0  0  0  0999 V2000
  -30.8527   62.6257   61.7086 C   0  0  0  0  0  0  0  0  0  0  0  0
  -29.5727   63.1822   61.8105 O   0  0  0  0  0  0  0  0  0  0  0  0
  -30.8512   61.1668   62.0564 C   0  0  0  0  0  0  0  0  0  0  0  0
  -31.7521   63.2747   62.5475 O   0  0  0  0  0  0  0  0  0  0  0  0
  -32.2106   60.5224   62.0277 C   0  0  0  0  0  0  0  0  0  0  0  0
  -32.6825   60.2901   63.4140 C   0  0  0  0  0  0  0  0  0  0  0  0
  -34.1389   60.5899   63.6357 C   0  0  0  0  0  0  0  0  0  0  0  0
  -35.0162   59.4032   63.6940 C   0  0  0  0  0  0  0  0  0  0  0  0
  -36.2433   59.7080   64.5117 C   0  0  0  0  0  0  0  0  0  0  0  0
  -37.3653   60.2248   63.6733 C   0  0  0  0  0  0  0  0  0  0  0  0
  -38.7127   60.0611   64.3737 C   0  0  0  0  0  0  0  0  0  0  0  0
  -39.7332   59.8860   63.2296 C   0  0  0  0  0  0  0  0  0  0  0  0
  -40.8941   60.7956   63.4853 C   0  0  0  0  0  0  0  0  0  0  0  0
  -42.0426   59.9954   64.1200 C   0  0  0  0  0  0  0  0  0  0  0  0
  -43.3343   60.2531   63.4372 C   0  0  0  0  0  0  0  0  0  0  0  0
  -44.1112   59.0399   63.0756 C   0  0  0  0  0  0  0  0  0  0  0  0
  -45.2350   59.2127   62.1435 C   0  0  0  0  0  0  0  0  0  0  0  0
  -46.1415   58.0723   61.8800 C   0  0  0  0  0  0  0  0  0  0  0  0
  1  2  1  0
  1  3  1  0
  1  4  1  0
  3  5  1  0
  5  6  1  0
  6  7  1  0
  7  8  1  0
  8  9  1  0
  9 10  1  0
 10 11  1  0
 11 12  1  0
 12 13  1  0
 13 14  1  0
 14 15  1  0
 15 16  1  0
 16 17  1  0
 17 18  1  0
M  END
$$$$
