
     RDKit          3D

 18 17  0  0  0  0  0  0  0  0999 V2000
  -34.1450   61.3222   64.9777 C   0  0  0  0  0  0  0  0  0  0  0  0
  -32.8354   61.7593   65.2068 O   0  0  0  0  0  0  0  0  0  0  0  0
  -34.7480   61.9870   63.7761 C   0  0  0  0  0  0  0  0  0  0  0  0
  -34.1901   59.9458   64.7851 O   0  0  0  0  0  0  0  0  0  0  0  0
  -36.2481   62.0961   63.8170 C   0  0  0  0  0  0  0  0  0  0  0  0
  -36.8397   60.7585   64.0604 C   0  0  0  0  0  0  0  0  0  0  0  0
  -38.0953   60.4806   63.2817 C   0  0  0  0  0  0  0  0  0  0  0  0
  -39.3334   60.4552   64.0866 C   0  0  0  0  0  0  0  0  0  0  0  0
  -40.5357   60.3873   63.1825 C   0  0  0  0  0  0  0  0  0  0  0  0
  -41.7984   60.7408   63.8963 C   0  0  0  0  0  0  0  0  0  0  0  0
  -43.0126   60.6396   62.9752 C   0  0  0  0  0  0  0  0  0  0  0  0
  -43.9601   59.6459   63.6795 C   0  0  0  0  0  0  0  0  0  0  0  0
  -45.3372   60.2325   63.6948 C   0  0  0  0  0  0  0  0  0  0  0  0
  -46.3769   59.1008   63.6813 C   0  0  0  0  0  0  0  0  0  0  0  0
  -47.4282   59.3331   62.6604 C   0  0  0  0  0  0  0  0  0  0  0  0
  -48.8197   59.0898   63.1194 C   0  0  0  0  0  0  0  0  0  0  0  0
  -49.8410   58.8681   62.0853 C   0  0  0  0  0  0  0  0  0  0  0  0
  -51.2708   59.0402   62.4285 C   0  0  0  0  0  0  0  0  0  0  0  0
  1  2  1  0
  1  3  1  0
  1  4  1  0
  3  5  1  0
  5  6  1  0
  6  7  1  0
  7  8  1  0
  8  9  1  0
  9 10  1  0
 10 11  1  0
 11 12  1  0
 12 13  1  0
 13 14  1  0
 14 15  1  0
 15 16  1  0
 16 17  1  0
 17 18  1  0
M  END
$$$$
