
     RDKit          3D

 18 17  0  0  0  0  0  0  0  0999 V2000
  -29.7850   61.6947   62.6287 C   0  0  0  0  0  0  0  0  0  0  0  0
  -28.6075   62.0366   63.3034 O   0  0  0  0  0  0  0  0  0  0  0  0
  -30.7247   60.9266   63.5097 C   0  0  0  0  0  0  0  0  0  0  0  0
  -30.4464   62.8267   62.1650 O   0  0  0  0  0  0  0  0  0  0  0  0
  -31.9867   60.4768   62.8250 C   0  0  0  0  0  0  0  0  0  0  0  0
  -33.0819   61.4321   63.1188 C   0  0  0  0  0  0  0  0  0  0  0  0
  -34.3414   60.7965   63.6382 C   0  0  0  0  0  0  0  0  0  0  0  0
  -35.4998   60.8751   62.7252 C   0  0  0  0  0  0  0  0  0  0  0  0
  -36.7489   61.1959   63.5024 C   0  0  0  0  0  0  0  0  0  0  0  0
  -37.9754   60.6520   62.8477 C   0  0  0  0  0  0  0  0  0  0  0  0
  -39.1540   60.5977   63.8177 C   0  0  0  0  0  0  0  0  0  0  0  0
  -40.3839   60.3183   62.9287 C   0  0  0  0  0  0  0  0  0  0  0  0
  -41.5915   60.9048   63.5908 C   0  0  0  0  0  0  0  0  0  0  0  0
  -42.5539   59.7765   63.9944 C   0  0  0  0  0  0  0  0  0  0  0  0
  -43.8813   59.9302   63.3497 C   0  0  0  0  0  0  0  0  0  0  0  0
  -44.7421   58.7201   63.3789 C   0  0  0  0  0  0  0  0  0  0  0  0
  -45.5480   58.4377   62.1822 C   0  0  0  0  0  0  0  0  0  0  0  0
  -47.0213   58.3554   62.3020 C   0  0  0  0  0  0  0  0  0  0  0  0
  1  2  1  0
  1  3  1  0
  1  4  1  0
  3  5  1  0
  5  6  1  0
  6  7  1  0
  7  8  1  0
  8  9  1  0
  9 10  1  0
 10 11  1  0
 11 12  1  0
 12 13  1  0
 13 14  1  0
 14 15  1  0
 15 16  1  0
 16 17  1  0
 17 18  1  0
M  END
$$$$
