
     RDKit          3D

 18 17  0  0  0  0  0  0  0  0999 V2000
  -35.0553   62.5686   62.7623 C   0  0  0  0  0  0  0  0  0  0  0  0
  -33.9987   62.0370   63.5105 O   0  0  0  0  0  0  0  0  0  0  0  0
  -36.3709   62.3937   63.4608 C   0  0  0  0  0  0  0  0  0  0  0  0
  -34.8667   63.9244   62.5174 O   0  0  0  0  0  0  0  0  0  0  0  0
  -36.7135   60.9652   63.7863 C   0  0  0  0  0  0  0  0  0  0  0  0
  -37.5723   60.4016   62.7170 C   0  0  0  0  0  0  0  0  0  0  0  0
  -38.9359   61.0268   62.6177 C   0  0  0  0  0  0  0  0  0  0  0  0
  -39.9866   60.1436   62.0721 C   0  0  0  0  0  0  0  0  0  0  0  0
  -40.7845   59.5357   63.1951 C   0  0  0  0  0  0  0  0  0  0  0  0
  -41.6887   58.4472   62.7193 C   0  0  0  0  0  0  0  0  0  0  0  0
  -42.9843   58.3987   63.5267 C   0  0  0  0  0  0  0  0  0  0  0  0
  -43.2075   59.8499   64.0016 C   0  0  0  0  0  0  0  0  0  0  0  0
  -44.5699   59.9447   64.6144 C   0  0  0  0  0  0  0  0  0  0  0  0
  -45.6356   59.8696   63.5096 C   0  0  0  0  0  0  0  0  0  0  0  0
  -47.0064   60.0151   64.0581 C   0  0  0  0  0  0  0  0  0  0  0  0
  -47.8738   58.8176   63.9177 C   0  0  0  0  0  0  0  0  0  0  0  0
  -49.3257   59.0409   63.8564 C   0  0  0  0  0  0  0  0  0  0  0  0
  -50.1744   58.0939   63.0984 C   0  0  0  0  0  0  0  0  0  0  0  0
  1  2  1  0
  1  3  1  0
  1  4  1  0
  3  5  1  0
  5  6  1  0
  6  7  1  0
  7  8  1  0
  8  9  1  0
  9 10  1  0
 10 11  1  0
 11 12  1  0
 12 13  1  0
 13 14  1  0
 14 15  1  0
 15 16  1  0
 16 17  1  0
 17 18  1  0
M  END
$$$$
