
     RDKit          3D

 56 55  0  0  0  0  0  0  0  0999 V2000
  -41.5188   61.4272   62.8166 N   0  0  0  0  0  0  0  0  0  0  0  0
  -39.9431   59.8491   63.9103 C   0  0  2  0  0  0  0  0  0  0  0  0
  -38.6460   59.3701   63.5762 O   0  0  0  0  0  0  0  0  0  0  0  0
  -39.7114   64.6642   64.8646 P   0  0  0  0  0  5  0  0  0  0  0  0
  -40.8463   58.7398   64.1086 C   0  0  0  0  0  0  0  0  0  0  0  0
  -37.1946   68.5986   64.3031 N   0  0  1  0  0  4  0  0  0  0  0  0
  -42.9815   61.7437   61.0024 O   0  0  0  0  0  0  0  0  0  0  0  0
  -42.2805   58.7839   63.7831 C   0  0  0  0  0  0  0  0  0  0  0  0
  -40.3434   63.3823   64.0907 O   0  0  0  0  0  0  0  0  0  0  0  0
  -43.2978   58.8883   64.8587 C   0  0  0  0  0  0  0  0  0  0  0  0
  -38.2741   64.1270   64.8625 O   0  0  0  0  0  1  0  0  0  0  0  0
  -44.6413   58.3348   64.4636 C   0  0  0  0  0  0  0  0  0  0  0  0
  -39.2143   66.0138   64.1051 O   0  0  0  0  0  0  0  0  0  0  0  0
  -45.6052   58.3109   65.6176 C   0  0  0  0  0  0  0  0  0  0  0  0
  -39.6690   64.6068   66.5595 O   0  0  0  0  0  0  0  0  0  0  0  0
  -46.2187   56.9435   65.7253 C   0  0  0  0  0  0  0  0  0  0  0  0
  -47.5731   56.8987   65.0475 C   0  0  0  0  0  0  0  0  0  0  0  0
  -47.9340   58.2158   64.4240 C   0  0  0  0  0  0  0  0  0  0  0  0
  -49.4163   58.2932   64.1796 C   0  0  0  0  0  0  0  0  0  0  0  0
  -49.7325   58.7143   62.7605 C   0  0  0  0  0  0  0  0  0  0  0  0
  -50.9712   59.5164   62.5999 C   0  0  0  0  0  0  0  0  0  0  0  0
  -51.6698   59.3022   61.2786 C   0  0  0  0  0  0  0  0  0  0  0  0
  -53.1009   59.7431   61.3610 C   0  0  0  0  0  0  0  0  0  0  0  0
  -53.9901   59.2502   60.2754 C   0  0  0  0  0  0  0  0  0  0  0  0
  -55.4076   59.6970   60.3870 C   0  0  0  0  0  0  0  0  0  0  0  0
  -40.1918   61.1043   63.2520 C   0  0  2  0  0  0  0  0  0  0  0  0
  -41.7076   61.3832   61.3773 C   0  0  0  0  0  0  0  0  0  0  0  0
  -40.7351   62.3745   60.7907 C   0  0  0  0  0  0  0  0  0  0  0  0
  -40.1872   61.8653   59.4885 C   0  0  0  0  0  0  0  0  0  0  0  0
  -38.7873   62.4420   59.2721 C   0  0  0  0  0  0  0  0  0  0  0  0
  -37.9181   61.4399   58.6092 C   0  0  0  0  0  0  0  0  0  0  0  0
  -37.0641   60.6513   59.5993 C   0  0  0  0  0  0  0  0  0  0  0  0
  -36.1344   59.8038   58.8182 C   0  0  0  0  0  0  0  0  0  0  0  0
  -34.6590   59.9920   59.0909 C   0  0  0  0  0  0  0  0  0  0  0  0
  -33.7610   59.1192   58.3013 C   0  0  0  0  0  0  0  0  0  0  0  0
  -32.6298   58.4720   58.9817 C   0  0  0  0  0  0  0  0  0  0  0  0
  -32.6870   57.0707   59.4275 C   0  0  0  0  0  0  0  0  0  0  0  0
  -31.5242   56.4928   60.1704 C   0  0  0  0  0  0  0  0  0  0  0  0
  -31.3807   57.2414   61.4908 C   0  0  0  0  0  0  0  0  0  0  0  0
  -30.1336   56.8914   62.2174 C   0  0  0  0  0  0  0  0  0  0  0  0
  -28.8545   57.2280   61.5678 C   0  0  0  0  0  0  0  0  0  0  0  0
  -27.6246   56.5562   62.0911 C   0  0  0  0  0  0  0  0  0  0  0  0
  -27.5666   56.5123   63.6038 C   0  0  0  0  0  0  0  0  0  0  0  0
  -26.2323   56.0447   64.0420 C   0  0  0  0  0  0  0  0  0  0  0  0
  -26.1780   54.6429   64.6323 C   0  0  0  0  0  0  0  0  0  0  0  0
  -24.8065   54.1880   64.9092 C   0  0  0  0  0  0  0  0  0  0  0  0
  -24.6550   52.9681   65.6949 C   0  0  0  0  0  0  0  0  0  0  0  0
  -23.5233   52.1026   65.8734 C   0  0  0  0  0  0  0  0  0  0  0  0
  -23.4505   50.6498   65.8039 C   0  0  0  0  0  0  0  0  0  0  0  0
  -23.4659   49.8414   67.0572 C   0  0  0  0  0  0  0  0  0  0  0  0
  -39.5236   62.3486   63.7772 C   0  0  0  0  0  0  0  0  0  0  0  0
  -37.8803   66.2314   64.0907 C   0  0  0  0  0  0  0  0  0  0  0  0
  -37.6588   67.5805   63.4206 C   0  0  0  0  0  0  0  0  0  0  0  0
  -36.3575   68.0853   65.3708 C   0  0  0  0  0  0  0  0  0  0  0  0
  -36.3231   69.4780   63.5060 C   0  0  0  0  0  0  0  0  0  0  0  0
  -38.2006   69.4431   64.8682 C   0  0  0  0  0  0  0  0  0  0  0  0
  1 26  1  0
  1 27  1  0
  2  3  1  6
  2  5  1  0
  2 26  1  0
  4  9  1  0
  4 11  1  0
  4 13  1  0
  4 15  1  0
  5  8  1  0
  6 53  1  0
  6 54  1  1
  6 55  1  0
  6 56  1  0
  7 27  1  0
  8 10  1  0
  9 51  1  0
 10 12  1  0
 12 14  1  0
 13 52  1  0
 14 16  1  0
 16 17  1  0
 17 18  1  0
 18 19  1  0
 19 20  1  0
 20 21  1  0
 21 22  1  0
 22 23  1  0
 23 24  1  0
 24 25  1  0
 26 51  1  1
 27 28  1  0
 28 29  1  0
 29 30  1  0
 30 31  1  0
 31 32  1  0
 32 33  1  0
 33 34  1  0
 34 35  1  0
 35 36  1  0
 36 37  1  0
 37 38  1  0
 38 39  1  0
 39 40  1  0
 40 41  1  0
 41 42  1  0
 42 43  1  0
 43 44  1  0
 44 45  1  0
 45 46  1  0
 46 47  1  0
 47 48  1  0
 48 49  1  0
 49 50  1  0
 52 53  1  0
M  CHG  2   6   1  11  -1
M  END
$$$$
