
     RDKit          3D

 56 55  0  0  0  0  0  0  0  0999 V2000
  -35.5237   62.8000   63.6251 N   0  0  0  0  0  0  0  0  0  0  0  0
  -33.8578   64.4614   62.8287 C   0  0  2  0  0  0  0  0  0  0  0  0
  -34.0394   65.3717   61.7508 O   0  0  0  0  0  0  0  0  0  0  0  0
  -33.4966   66.4290   65.0786 P   0  0  0  0  0  5  0  0  0  0  0  0
  -32.7617   63.5656   62.5429 C   0  0  0  0  0  0  0  0  0  0  0  0
  -29.3955   66.4142   64.4661 N   0  0  1  0  0  4  0  0  0  0  0  0
  -36.8800   61.0582   62.8142 O   0  0  0  0  0  0  0  0  0  0  0  0
  -32.5240   62.3064   63.2658 C   0  0  0  0  0  0  0  0  0  0  0  0
  -34.5913   65.3123   65.5217 O   0  0  0  0  0  0  0  0  0  0  0  0
  -31.5926   62.2608   64.4205 C   0  0  0  0  0  0  0  0  0  0  0  0
  -33.1126   66.8171   66.5126 O   0  0  0  0  0  1  0  0  0  0  0  0
  -30.2924   61.5676   64.1099 C   0  0  0  0  0  0  0  0  0  0  0  0
  -31.9423   66.0794   64.7509 O   0  0  0  0  0  0  0  0  0  0  0  0
  -30.5064   60.2008   63.5204 C   0  0  0  0  0  0  0  0  0  0  0  0
  -34.0502   68.0173   64.8585 O   0  0  0  0  0  0  0  0  0  0  0  0
  -29.9978   59.1606   64.4779 C   0  0  0  0  0  0  0  0  0  0  0  0
  -30.8932   57.9382   64.4811 C   0  0  0  0  0  0  0  0  0  0  0  0
  -30.1626   56.7047   64.0356 C   0  0  0  0  0  0  0  0  0  0  0  0
  -29.3037   57.0061   62.8380 C   0  0  0  0  0  0  0  0  0  0  0  0
  -29.3319   55.8805   61.8263 C   0  0  0  0  0  0  0  0  0  0  0  0
  -28.1076   55.0423   61.7784 C   0  0  0  0  0  0  0  0  0  0  0  0
  -28.1747   53.9214   60.7691 C   0  0  0  0  0  0  0  0  0  0  0  0
  -26.7963   53.4513   60.4106 C   0  0  0  0  0  0  0  0  0  0  0  0
  -26.7305   52.3541   59.4085 C   0  0  0  0  0  0  0  0  0  0  0  0
  -25.3488   51.9695   59.0033 C   0  0  0  0  0  0  0  0  0  0  0  0
  -35.1241   64.1647   63.4446 C   0  0  2  0  0  0  0  0  0  0  0  0
  -36.7229   62.4225   62.8981 C   0  0  0  0  0  0  0  0  0  0  0  0
  -37.8851   62.9939   63.6698 C   0  0  0  0  0  0  0  0  0  0  0  0
  -39.1859   62.5748   63.0474 C   0  0  0  0  0  0  0  0  0  0  0  0
  -40.0047   61.7903   64.0737 C   0  0  0  0  0  0  0  0  0  0  0  0
  -40.6982   60.6564   63.4161 C   0  0  0  0  0  0  0  0  0  0  0  0
  -42.1984   60.6367   63.6998 C   0  0  0  0  0  0  0  0  0  0  0  0
  -42.7067   59.2915   63.3468 C   0  0  0  0  0  0  0  0  0  0  0  0
  -44.1930   59.0669   63.5120 C   0  0  0  0  0  0  0  0  0  0  0  0
  -44.6101   57.6470   63.5522 C   0  0  0  0  0  0  0  0  0  0  0  0
  -46.0449   57.3358   63.6268 C   0  0  0  0  0  0  0  0  0  0  0  0
  -46.9968   57.7983   62.6041 C   0  0  0  0  0  0  0  0  0  0  0  0
  -47.0778   57.0705   61.2997 C   0  0  0  0  0  0  0  0  0  0  0  0
  -48.5419   56.7487   61.0219 C   0  0  0  0  0  0  0  0  0  0  0  0
  -48.9930   57.2271   59.6903 C   0  0  0  0  0  0  0  0  0  0  0  0
  -49.9097   56.3566   58.9330 C   0  0  0  0  0  0  0  0  0  0  0  0
  -51.2441   56.9243   58.5658 C   0  0  0  0  0  0  0  0  0  0  0  0
  -51.4084   58.3737   58.9731 C   0  0  0  0  0  0  0  0  0  0  0  0
  -52.7889   58.8232   58.6845 C   0  0  0  0  0  0  0  0  0  0  0  0
  -53.2769   60.0277   59.4768 C   0  0  0  0  0  0  0  0  0  0  0  0
  -52.2637   61.0879   59.5941 C   0  0  0  0  0  0  0  0  0  0  0  0
  -52.6889   62.4516   59.2975 C   0  0  0  0  0  0  0  0  0  0  0  0
  -52.8040   63.6034   60.1471 C   0  0  0  0  0  0  0  0  0  0  0  0
  -53.7026   64.7444   60.0409 C   0  0  0  0  0  0  0  0  0  0  0  0
  -53.1483   66.1282   59.9904 C   0  0  0  0  0  0  0  0  0  0  0  0
  -35.5624   64.9737   64.6379 C   0  0  0  0  0  0  0  0  0  0  0  0
  -31.6110   66.0109   63.4422 C   0  0  0  0  0  0  0  0  0  0  0  0
  -30.1011   65.8260   63.3766 C   0  0  0  0  0  0  0  0  0  0  0  0
  -27.9601   66.4480   64.2600 C   0  0  0  0  0  0  0  0  0  0  0  0
  -29.8191   67.8231   64.5274 C   0  0  0  0  0  0  0  0  0  0  0  0
  -29.6655   65.8620   65.7573 C   0  0  0  0  0  0  0  0  0  0  0  0
  1 26  1  0
  1 27  1  0
  2  3  1  6
  2  5  1  0
  2 26  1  0
  4  9  1  0
  4 11  1  0
  4 13  1  0
  4 15  1  0
  5  8  1  0
  6 53  1  0
  6 54  1  6
  6 55  1  0
  6 56  1  0
  7 27  1  0
  8 10  1  0
  9 51  1  0
 10 12  1  0
 12 14  1  0
 13 52  1  0
 14 16  1  0
 16 17  1  0
 17 18  1  0
 18 19  1  0
 19 20  1  0
 20 21  1  0
 21 22  1  0
 22 23  1  0
 23 24  1  0
 24 25  1  0
 26 51  1  1
 27 28  1  0
 28 29  1  0
 29 30  1  0
 30 31  1  0
 31 32  1  0
 32 33  1  0
 33 34  1  0
 34 35  1  0
 35 36  1  0
 36 37  1  0
 37 38  1  0
 38 39  1  0
 39 40  1  0
 40 41  1  0
 41 42  1  0
 42 43  1  0
 43 44  1  0
 44 45  1  0
 45 46  1  0
 46 47  1  0
 47 48  1  0
 48 49  1  0
 49 50  1  0
 52 53  1  0
M  CHG  2   6   1  11  -1
M  END
$$$$
