
     RDKit          3D

 56 55  0  0  0  0  0  0  0  0999 V2000
  -38.0999   63.0026   65.8420 N   0  0  0  0  0  0  0  0  0  0  0  0
  -38.8153   64.7703   64.2506 C   0  0  2  0  0  0  0  0  0  0  0  0
  -38.5472   66.1317   63.9373 O   0  0  0  0  0  0  0  0  0  0  0  0
  -35.6308   66.2831   63.4827 P   0  0  0  0  0  5  0  0  0  0  0  0
  -40.2100   64.4734   64.0215 C   0  0  0  0  0  0  0  0  0  0  0  0
  -38.1476   67.9962   60.3147 N   0  0  1  0  0  4  0  0  0  0  0  0
  -36.8902   61.0585   66.3789 O   0  0  0  0  0  0  0  0  0  0  0  0
  -40.8437   63.1942   64.3778 C   0  0  0  0  0  0  0  0  0  0  0  0
  -36.2368   66.0026   64.9645 O   0  0  0  0  0  0  0  0  0  0  0  0
  -42.3013   62.9921   64.1849 C   0  0  0  0  0  0  0  0  0  0  0  0
  -35.9005   64.8670   62.9571 O   0  0  0  0  0  1  0  0  0  0  0  0
  -42.6287   62.0815   63.0310 C   0  0  0  0  0  0  0  0  0  0  0  0
  -36.5037   66.9090   62.2613 O   0  0  0  0  0  0  0  0  0  0  0  0
  -44.0640   61.6334   63.0533 C   0  0  0  0  0  0  0  0  0  0  0  0
  -33.9758   65.9917   63.2507 O   0  0  0  0  0  0  0  0  0  0  0  0
  -44.9483   62.8107   63.3530 C   0  0  0  0  0  0  0  0  0  0  0  0
  -45.9909   62.9992   62.2698 C   0  0  0  0  0  0  0  0  0  0  0  0
  -47.3872   62.9573   62.8196 C   0  0  0  0  0  0  0  0  0  0  0  0
  -47.7399   61.5605   63.2528 C   0  0  0  0  0  0  0  0  0  0  0  0
  -49.2356   61.3279   63.2428 C   0  0  0  0  0  0  0  0  0  0  0  0
  -49.7251   60.4050   62.1881 C   0  0  0  0  0  0  0  0  0  0  0  0
  -51.2135   60.1560   62.2380 C   0  0  0  0  0  0  0  0  0  0  0  0
  -51.5075   58.6904   62.1156 C   0  0  0  0  0  0  0  0  0  0  0  0
  -52.5023   58.1505   63.0805 C   0  0  0  0  0  0  0  0  0  0  0  0
  -52.9714   56.7690   62.7762 C   0  0  0  0  0  0  0  0  0  0  0  0
  -37.9691   64.3350   65.3301 C   0  0  2  0  0  0  0  0  0  0  0  0
  -36.9975   62.1182   65.5078 C   0  0  0  0  0  0  0  0  0  0  0  0
  -37.2870   61.5804   64.1296 C   0  0  0  0  0  0  0  0  0  0  0  0
  -36.5378   60.2998   63.8973 C   0  0  0  0  0  0  0  0  0  0  0  0
  -35.1254   60.6251   63.4090 C   0  0  0  0  0  0  0  0  0  0  0  0
  -34.5561   59.4655   62.6807 C   0  0  0  0  0  0  0  0  0  0  0  0
  -33.1096   59.6921   62.2475 C   0  0  0  0  0  0  0  0  0  0  0  0
  -32.6198   58.4358   61.6356 C   0  0  0  0  0  0  0  0  0  0  0  0
  -31.1200   58.2491   61.5865 C   0  0  0  0  0  0  0  0  0  0  0  0
  -30.6066   57.1036   62.3713 C   0  0  0  0  0  0  0  0  0  0  0  0
  -29.2259   56.6542   62.1415 C   0  0  0  0  0  0  0  0  0  0  0  0
  -28.7846   55.2904   62.4750 C   0  0  0  0  0  0  0  0  0  0  0  0
  -29.1713   54.1578   61.5774 C   0  0  0  0  0  0  0  0  0  0  0  0
  -27.9184   53.3484   61.2622 C   0  0  0  0  0  0  0  0  0  0  0  0
  -27.0852   53.0875   62.4636 C   0  0  0  0  0  0  0  0  0  0  0  0
  -25.7755   52.4458   62.2528 C   0  0  0  0  0  0  0  0  0  0  0  0
  -25.7590   50.9566   62.1116 C   0  0  0  0  0  0  0  0  0  0  0  0
  -26.0385   50.2310   63.4112 C   0  0  0  0  0  0  0  0  0  0  0  0
  -24.8805   49.3822   63.7717 C   0  0  0  0  0  0  0  0  0  0  0  0
  -25.1302   47.8808   63.7755 C   0  0  0  0  0  0  0  0  0  0  0  0
  -26.3180   47.4972   64.5543 C   0  0  0  0  0  0  0  0  0  0  0  0
  -26.1356   46.4923   65.5961 C   0  0  0  0  0  0  0  0  0  0  0  0
  -26.9100   46.2095   66.7718 C   0  0  0  0  0  0  0  0  0  0  0  0
  -27.1393   44.9383   67.4441 C   0  0  0  0  0  0  0  0  0  0  0  0
  -26.1444   44.4260   68.4301 C   0  0  0  0  0  0  0  0  0  0  0  0
  -36.5131   64.7228   65.3176 C   0  0  0  0  0  0  0  0  0  0  0  0
  -36.6130   68.2560   62.2374 C   0  0  0  0  0  0  0  0  0  0  0  0
  -36.9806   68.6453   60.8121 C   0  0  0  0  0  0  0  0  0  0  0  0
  -38.0814   66.5510   60.4209 C   0  0  0  0  0  0  0  0  0  0  0  0
  -39.2594   68.4059   61.1889 C   0  0  0  0  0  0  0  0  0  0  0  0
  -38.5389   68.3457   58.9845 C   0  0  0  0  0  0  0  0  0  0  0  0
  1 26  1  0
  1 27  1  0
  2  3  1  1
  2  5  1  0
  2 26  1  0
  4  9  1  0
  4 11  1  0
  4 13  1  0
  4 15  1  0
  5  8  1  0
  6 53  1  0
  6 54  1  6
  6 55  1  0
  6 56  1  0
  7 27  1  0
  8 10  1  0
  9 51  1  0
 10 12  1  0
 12 14  1  0
 13 52  1  0
 14 16  1  0
 16 17  1  0
 17 18  1  0
 18 19  1  0
 19 20  1  0
 20 21  1  0
 21 22  1  0
 22 23  1  0
 23 24  1  0
 24 25  1  0
 26 51  1  6
 27 28  1  0
 28 29  1  0
 29 30  1  0
 30 31  1  0
 31 32  1  0
 32 33  1  0
 33 34  1  0
 34 35  1  0
 35 36  1  0
 36 37  1  0
 37 38  1  0
 38 39  1  0
 39 40  1  0
 40 41  1  0
 41 42  1  0
 42 43  1  0
 43 44  1  0
 44 45  1  0
 45 46  1  0
 46 47  1  0
 47 48  1  0
 48 49  1  0
 49 50  1  0
 52 53  1  0
M  CHG  2   6   1  11  -1
M  END
$$$$
