
     RDKit          3D

 56 55  0  0  0  0  0  0  0  0999 V2000
  -39.3790   64.1094   62.9191 N   0  0  0  0  0  0  0  0  0  0  0  0
  -40.8738   66.0263   63.4294 C   0  0  2  0  0  0  0  0  0  0  0  0
  -40.5846   67.4162   63.3403 O   0  0  0  0  0  0  0  0  0  0  0  0
  -39.9924   67.5748   60.8570 P   0  0  0  0  0  5  0  0  0  0  0  0
  -41.2216   65.6775   64.7870 C   0  0  0  0  0  0  0  0  0  0  0  0
  -39.7502   72.1633   61.5711 N   0  0  1  0  0  4  0  0  0  0  0  0
  -38.2156   63.7388   64.9292 O   0  0  0  0  0  0  0  0  0  0  0  0
  -42.5537   65.2040   65.1947 C   0  0  0  0  0  0  0  0  0  0  0  0
  -40.4425   66.1390   60.2424 O   0  0  0  0  0  0  0  0  0  0  0  0
  -43.3036   65.8920   66.2750 C   0  0  0  0  0  0  0  0  0  0  0  0
  -38.4897   67.3450   60.6483 O   0  0  0  0  0  1  0  0  0  0  0  0
  -44.6492   65.2754   66.5519 C   0  0  0  0  0  0  0  0  0  0  0  0
  -39.9116   68.9404   59.9773 O   0  0  0  0  0  0  0  0  0  0  0  0
  -45.5538   65.3282   65.3518 C   0  0  0  0  0  0  0  0  0  0  0  0
  -39.6909   67.6475   62.5248 O   0  0  0  0  0  0  0  0  0  0  0  0
  -46.8662   64.6789   65.6888 C   0  0  0  0  0  0  0  0  0  0  0  0
  -47.3471   63.7994   64.5526 C   0  0  0  0  0  0  0  0  0  0  0  0
  -48.5906   64.3413   63.9093 C   0  0  0  0  0  0  0  0  0  0  0  0
  -49.3577   63.2368   63.2349 C   0  0  0  0  0  0  0  0  0  0  0  0
  -48.5331   61.9738   63.1080 C   0  0  0  0  0  0  0  0  0  0  0  0
  -49.3127   60.7278   62.8994 C   0  0  0  0  0  0  0  0  0  0  0  0
  -49.1061   60.0988   61.5424 C   0  0  0  0  0  0  0  0  0  0  0  0
  -49.9632   58.8773   61.3913 C   0  0  0  0  0  0  0  0  0  0  0  0
  -49.8031   58.1325   60.1138 C   0  0  0  0  0  0  0  0  0  0  0  0
  -48.3945   57.7831   59.7746 C   0  0  0  0  0  0  0  0  0  0  0  0
  -40.0669   65.2918   62.4912 C   0  0  2  0  0  0  0  0  0  0  0  0
  -38.1814   64.3595   63.7017 C   0  0  0  0  0  0  0  0  0  0  0  0
  -37.0303   63.7946   62.9091 C   0  0  0  0  0  0  0  0  0  0  0  0
  -36.5265   62.5299   63.5430 C   0  0  0  0  0  0  0  0  0  0  0  0
  -35.5419   61.8482   62.5917 C   0  0  0  0  0  0  0  0  0  0  0  0
  -35.0481   60.5828   63.1869 C   0  0  0  0  0  0  0  0  0  0  0  0
  -34.2007   59.7642   62.2157 C   0  0  0  0  0  0  0  0  0  0  0  0
  -33.8187   58.5073   62.8992 C   0  0  0  0  0  0  0  0  0  0  0  0
  -33.1176   58.6498   64.2313 C   0  0  0  0  0  0  0  0  0  0  0  0
  -31.6389   58.6673   64.1608 C   0  0  0  0  0  0  0  0  0  0  0  0
  -30.9248   57.3897   64.0231 C   0  0  0  0  0  0  0  0  0  0  0  0
  -30.2760   56.9914   62.7637 C   0  0  0  0  0  0  0  0  0  0  0  0
  -28.9313   56.3374   62.8100 C   0  0  0  0  0  0  0  0  0  0  0  0
  -29.1287   54.8298   62.6972 C   0  0  0  0  0  0  0  0  0  0  0  0
  -27.8558   54.0734   62.8110 C   0  0  0  0  0  0  0  0  0  0  0  0
  -27.9455   52.6042   62.8822 C   0  0  0  0  0  0  0  0  0  0  0  0
  -26.6589   51.8411   62.9007 C   0  0  0  0  0  0  0  0  0  0  0  0
  -26.8503   50.3456   62.7577 C   0  0  0  0  0  0  0  0  0  0  0  0
  -25.6652   49.6346   63.2879 C   0  0  0  0  0  0  0  0  0  0  0  0
  -25.6030   49.4786   64.8007 C   0  0  0  0  0  0  0  0  0  0  0  0
  -24.4361   48.7045   65.2516 C   0  0  0  0  0  0  0  0  0  0  0  0
  -24.2145   48.6105   66.6906 C   0  0  0  0  0  0  0  0  0  0  0  0
  -24.5666   47.5817   67.6282 C   0  0  0  0  0  0  0  0  0  0  0  0
  -24.8811   47.6911   69.0459 C   0  0  0  0  0  0  0  0  0  0  0  0
  -25.9273   46.8147   69.6475 C   0  0  0  0  0  0  0  0  0  0  0  0
  -40.5808   65.0889   61.0892 C   0  0  0  0  0  0  0  0  0  0  0  0
  -39.2442   69.9723   60.5403 C   0  0  0  0  0  0  0  0  0  0  0  0
  -40.2766   71.0433   60.8646 C   0  0  0  0  0  0  0  0  0  0  0  0
  -40.0494   73.4298   60.9303 C   0  0  0  0  0  0  0  0  0  0  0  0
  -40.4445   72.2036   62.8690 C   0  0  0  0  0  0  0  0  0  0  0  0
  -38.3527   72.1139   61.8699 C   0  0  0  0  0  0  0  0  0  0  0  0
  1 26  1  0
  1 27  1  0
  2  3  1  1
  2  5  1  0
  2 26  1  0
  4  9  1  0
  4 11  1  0
  4 13  1  0
  4 15  1  0
  5  8  1  0
  6 53  1  0
  6 54  1  6
  6 55  1  0
  6 56  1  0
  7 27  1  0
  8 10  1  0
  9 51  1  0
 10 12  1  0
 12 14  1  0
 13 52  1  0
 14 16  1  0
 16 17  1  0
 17 18  1  0
 18 19  1  0
 19 20  1  0
 20 21  1  0
 21 22  1  0
 22 23  1  0
 23 24  1  0
 24 25  1  0
 26 51  1  6
 27 28  1  0
 28 29  1  0
 29 30  1  0
 30 31  1  0
 31 32  1  0
 32 33  1  0
 33 34  1  0
 34 35  1  0
 35 36  1  0
 36 37  1  0
 37 38  1  0
 38 39  1  0
 39 40  1  0
 40 41  1  0
 41 42  1  0
 42 43  1  0
 43 44  1  0
 44 45  1  0
 45 46  1  0
 46 47  1  0
 47 48  1  0
 48 49  1  0
 49 50  1  0
 52 53  1  0
M  CHG  2   6   1  11  -1
M  END
$$$$
