
     RDKit          3D

 20 19  0  0  0  0  0  0  0  0999 V2000
  -33.9762   64.0871   64.0853 C   0  0  0  0  0  0  0  0  0  0  0  0
  -33.1093   64.9507   63.4104 O   0  0  0  0  0  0  0  0  0  0  0  0
  -35.2509   64.0101   63.2374 C   0  0  0  0  0  0  0  0  0  0  0  0
  -33.4117   62.8211   64.2296 O   0  0  0  0  0  0  0  0  0  0  0  0
  -36.3779   63.7228   64.1795 C   0  0  0  0  0  0  0  0  0  0  0  0
  -37.1450   64.9408   64.6147 C   0  0  0  0  0  0  0  0  0  0  0  0
  -38.6006   64.8673   64.2144 C   0  0  0  0  0  0  0  0  0  0  0  0
  -39.2825   63.9639   65.1979 C   0  0  0  0  0  0  0  0  0  0  0  0
  -40.3129   63.0357   64.5460 C   0  0  0  0  0  0  0  0  0  0  0  0
  -39.9228   61.6223   64.6037 C   0  0  0  0  0  0  0  0  0  0  0  0
  -40.2155   60.8183   63.4146 C   0  0  0  0  0  0  0  0  0  0  0  0
  -41.3148   59.8530   63.4237 C   0  0  0  0  0  0  0  0  0  0  0  0
  -41.0311   58.3930   63.3442 C   0  0  0  0  0  0  0  0  0  0  0  0
  -41.2004   57.9189   61.8881 C   0  0  0  0  0  0  0  0  0  0  0  0
  -40.3415   56.7722   61.5817 C   0  0  0  0  0  0  0  0  0  0  0  0
  -39.7899   56.7338   60.1845 C   0  0  0  0  0  0  0  0  0  0  0  0
  -38.3476   57.0726   60.0707 C   0  0  0  0  0  0  0  0  0  0  0  0
  -37.6725   56.4451   58.8756 C   0  0  0  0  0  0  0  0  0  0  0  0
  -36.1684   56.5070   59.0357 C   0  0  0  0  0  0  0  0  0  0  0  0
  -35.4777   55.7741   57.9119 C   0  0  0  0  0  0  0  0  0  0  0  0
  1  2  1  0
  1  3  1  0
  1  4  1  0
  3  5  1  0
  5  6  1  0
  6  7  1  0
  7  8  1  0
  8  9  1  0
  9 10  1  0
 10 11  1  0
 11 12  1  0
 12 13  1  0
 13 14  1  0
 14 15  1  0
 15 16  1  0
 16 17  1  0
 17 18  1  0
 18 19  1  0
 19 20  1  0
M  END
$$$$
