
     RDKit          3D

 20 19  0  0  0  0  0  0  0  0999 V2000
  -31.4509   65.0950   63.2639 C   0  0  0  0  0  0  0  0  0  0  0  0
  -31.0097   66.4211   63.2612 O   0  0  0  0  0  0  0  0  0  0  0  0
  -32.9816   65.1523   63.2074 C   0  0  0  0  0  0  0  0  0  0  0  0
  -30.9501   64.3974   62.1663 O   0  0  0  0  0  0  0  0  0  0  0  0
  -33.4842   63.9292   63.9086 C   0  0  0  0  0  0  0  0  0  0  0  0
  -34.9091   63.5735   63.5852 C   0  0  0  0  0  0  0  0  0  0  0  0
  -35.4179   62.4362   64.4409 C   0  0  0  0  0  0  0  0  0  0  0  0
  -35.2409   61.1757   63.6484 C   0  0  0  0  0  0  0  0  0  0  0  0
  -36.3511   60.9552   62.6155 C   0  0  0  0  0  0  0  0  0  0  0  0
  -36.9478   59.6171   62.6980 C   0  0  0  0  0  0  0  0  0  0  0  0
  -38.4047   59.5459   62.5625 C   0  0  0  0  0  0  0  0  0  0  0  0
  -39.0967   58.2604   62.6563 C   0  0  0  0  0  0  0  0  0  0  0  0
  -40.3452   58.1380   63.4593 C   0  0  0  0  0  0  0  0  0  0  0  0
  -41.4964   58.8511   62.7245 C   0  0  0  0  0  0  0  0  0  0  0  0
  -42.8079   58.3507   63.1443 C   0  0  0  0  0  0  0  0  0  0  0  0
  -43.9723   58.8193   62.3183 C   0  0  0  0  0  0  0  0  0  0  0  0
  -45.2912   58.2693   62.7255 C   0  0  0  0  0  0  0  0  0  0  0  0
  -46.4224   58.6744   61.8122 C   0  0  0  0  0  0  0  0  0  0  0  0
  -47.7271   58.0886   62.3086 C   0  0  0  0  0  0  0  0  0  0  0  0
  -48.8345   58.3198   61.3098 C   0  0  0  0  0  0  0  0  0  0  0  0
  1  2  1  0
  1  3  1  0
  1  4  1  0
  3  5  1  0
  5  6  1  0
  6  7  1  0
  7  8  1  0
  8  9  1  0
  9 10  1  0
 10 11  1  0
 11 12  1  0
 12 13  1  0
 13 14  1  0
 14 15  1  0
 15 16  1  0
 16 17  1  0
 17 18  1  0
 18 19  1  0
 19 20  1  0
M  END
$$$$
