
     RDKit          3D

 20 19  0  0  0  0  0  0  0  0999 V2000
  -31.2293   63.0815   63.4582 C   0  0  0  0  0  0  0  0  0  0  0  0
  -30.3239   62.2858   62.7511 O   0  0  0  0  0  0  0  0  0  0  0  0
  -32.0378   62.1271   64.3443 C   0  0  0  0  0  0  0  0  0  0  0  0
  -30.5646   64.0244   64.2401 O   0  0  0  0  0  0  0  0  0  0  0  0
  -32.7246   61.1652   63.4261 C   0  0  0  0  0  0  0  0  0  0  0  0
  -34.1910   61.4362   63.2321 C   0  0  0  0  0  0  0  0  0  0  0  0
  -35.0502   60.3076   63.7543 C   0  0  0  0  0  0  0  0  0  0  0  0
  -36.0192   59.9524   62.6665 C   0  0  0  0  0  0  0  0  0  0  0  0
  -37.4831   60.0817   63.1008 C   0  0  0  0  0  0  0  0  0  0  0  0
  -38.4179   60.0403   61.9705 C   0  0  0  0  0  0  0  0  0  0  0  0
  -39.8381   60.1917   62.2961 C   0  0  0  0  0  0  0  0  0  0  0  0
  -40.8014   60.5644   61.2600 C   0  0  0  0  0  0  0  0  0  0  0  0
  -42.2068   60.8942   61.6267 C   0  0  0  0  0  0  0  0  0  0  0  0
  -42.7100   59.8856   62.6772 C   0  0  0  0  0  0  0  0  0  0  0  0
  -44.1732   59.8434   62.7395 C   0  0  0  0  0  0  0  0  0  0  0  0
  -44.7967   58.5234   62.3836 C   0  0  0  0  0  0  0  0  0  0  0  0
  -44.6158   58.1059   60.9690 C   0  0  0  0  0  0  0  0  0  0  0  0
  -45.2317   56.7651   60.6517 C   0  0  0  0  0  0  0  0  0  0  0  0
  -45.0348   56.4357   59.1873 C   0  0  0  0  0  0  0  0  0  0  0  0
  -45.1779   54.9529   58.9462 C   0  0  0  0  0  0  0  0  0  0  0  0
  1  2  1  0
  1  3  1  0
  1  4  1  0
  3  5  1  0
  5  6  1  0
  6  7  1  0
  7  8  1  0
  8  9  1  0
  9 10  1  0
 10 11  1  0
 11 12  1  0
 12 13  1  0
 13 14  1  0
 14 15  1  0
 15 16  1  0
 16 17  1  0
 17 18  1  0
 18 19  1  0
 19 20  1  0
M  END
$$$$
