
     RDKit          3D

 20 19  0  0  0  0  0  0  0  0999 V2000
  -32.8135   60.9517   62.3937 C   0  0  0  0  0  0  0  0  0  0  0  0
  -32.0803   60.2306   61.4475 O   0  0  0  0  0  0  0  0  0  0  0  0
  -33.4876   59.9124   63.2965 C   0  0  0  0  0  0  0  0  0  0  0  0
  -31.9840   61.7824   63.1447 O   0  0  0  0  0  0  0  0  0  0  0  0
  -34.3965   60.6662   64.2163 C   0  0  0  0  0  0  0  0  0  0  0  0
  -35.8327   60.7030   63.7722 C   0  0  0  0  0  0  0  0  0  0  0  0
  -36.6910   61.5359   64.6964 C   0  0  0  0  0  0  0  0  0  0  0  0
  -38.0076   60.8308   64.8291 C   0  0  0  0  0  0  0  0  0  0  0  0
  -38.8653   61.3723   65.9778 C   0  0  0  0  0  0  0  0  0  0  0  0
  -40.1919   60.7482   66.0408 C   0  0  0  0  0  0  0  0  0  0  0  0
  -40.7984   60.3802   64.7592 C   0  0  0  0  0  0  0  0  0  0  0  0
  -42.2522   60.3924   64.5955 C   0  0  0  0  0  0  0  0  0  0  0  0
  -42.8975   59.5345   63.5629 C   0  0  0  0  0  0  0  0  0  0  0  0
  -44.0033   60.3373   62.8512 C   0  0  0  0  0  0  0  0  0  0  0  0
  -44.1058   59.9892   61.4317 C   0  0  0  0  0  0  0  0  0  0  0  0
  -44.8412   58.7137   61.1312 C   0  0  0  0  0  0  0  0  0  0  0  0
  -45.9797   58.8542   60.1868 C   0  0  0  0  0  0  0  0  0  0  0  0
  -47.2807   58.3099   60.7243 C   0  0  0  0  0  0  0  0  0  0  0  0
  -47.8370   57.2651   59.7806 C   0  0  0  0  0  0  0  0  0  0  0  0
  -49.2232   56.8434   60.2024 C   0  0  0  0  0  0  0  0  0  0  0  0
  1  2  1  0
  1  3  1  0
  1  4  1  0
  3  5  1  0
  5  6  1  0
  6  7  1  0
  7  8  1  0
  8  9  1  0
  9 10  1  0
 10 11  1  0
 11 12  1  0
 12 13  1  0
 13 14  1  0
 14 15  1  0
 15 16  1  0
 16 17  1  0
 17 18  1  0
 18 19  1  0
 19 20  1  0
M  END
$$$$
