
     RDKit          3D

 20 19  0  0  0  0  0  0  0  0999 V2000
  -32.1319   63.7054   62.6234 C   0  0  0  0  0  0  0  0  0  0  0  0
  -30.8736   63.5646   63.2148 O   0  0  0  0  0  0  0  0  0  0  0  0
  -32.9975   64.4675   63.6332 C   0  0  0  0  0  0  0  0  0  0  0  0
  -32.0471   64.4123   61.4253 O   0  0  0  0  0  0  0  0  0  0  0  0
  -34.1434   63.5700   63.9817 C   0  0  0  0  0  0  0  0  0  0  0  0
  -33.8652   62.1061   63.7794 C   0  0  0  0  0  0  0  0  0  0  0  0
  -34.9506   61.2356   64.3701 C   0  0  0  0  0  0  0  0  0  0  0  0
  -35.9606   60.9964   63.2880 C   0  0  0  0  0  0  0  0  0  0  0  0
  -37.3567   60.6731   63.8309 C   0  0  0  0  0  0  0  0  0  0  0  0
  -38.3523   60.4902   62.7685 C   0  0  0  0  0  0  0  0  0  0  0  0
  -39.6023   59.8320   63.1558 C   0  0  0  0  0  0  0  0  0  0  0  0
  -40.8656   60.2047   62.5190 C   0  0  0  0  0  0  0  0  0  0  0  0
  -42.0908   60.4021   63.3426 C   0  0  0  0  0  0  0  0  0  0  0  0
  -43.3337   60.3199   62.4359 C   0  0  0  0  0  0  0  0  0  0  0  0
  -44.3911   59.4970   63.0288 C   0  0  0  0  0  0  0  0  0  0  0  0
  -45.7581   59.6731   62.4305 C   0  0  0  0  0  0  0  0  0  0  0  0
  -46.4404   58.4109   62.0441 C   0  0  0  0  0  0  0  0  0  0  0  0
  -47.8169   58.6223   61.4622 C   0  0  0  0  0  0  0  0  0  0  0  0
  -48.7136   57.4530   61.8093 C   0  0  0  0  0  0  0  0  0  0  0  0
  -50.1539   57.7655   61.4848 C   0  0  0  0  0  0  0  0  0  0  0  0
  1  2  1  0
  1  3  1  0
  1  4  1  0
  3  5  1  0
  5  6  1  0
  6  7  1  0
  7  8  1  0
  8  9  1  0
  9 10  1  0
 10 11  1  0
 11 12  1  0
 12 13  1  0
 13 14  1  0
 14 15  1  0
 15 16  1  0
 16 17  1  0
 17 18  1  0
 18 19  1  0
 19 20  1  0
M  END
$$$$
