
     RDKit          3D

 20 19  0  0  0  0  0  0  0  0999 V2000
  -32.3690   63.3083   63.2541 C   0  0  0  0  0  0  0  0  0  0  0  0
  -33.5456   63.9289   63.6825 O   0  0  0  0  0  0  0  0  0  0  0  0
  -32.7525   61.8710   62.8845 C   0  0  0  0  0  0  0  0  0  0  0  0
  -31.8281   63.9657   62.1507 O   0  0  0  0  0  0  0  0  0  0  0  0
  -33.8407   61.4601   63.8264 C   0  0  0  0  0  0  0  0  0  0  0  0
  -35.1583   62.1428   63.5835 C   0  0  0  0  0  0  0  0  0  0  0  0
  -36.3298   61.2236   63.8432 C   0  0  0  0  0  0  0  0  0  0  0  0
  -37.4958   62.0905   64.2136 C   0  0  0  0  0  0  0  0  0  0  0  0
  -38.6674   61.2998   64.8058 C   0  0  0  0  0  0  0  0  0  0  0  0
  -39.9452   61.5978   64.1487 C   0  0  0  0  0  0  0  0  0  0  0  0
  -40.8026   60.4498   63.8444 C   0  0  0  0  0  0  0  0  0  0  0  0
  -42.1093   60.6453   63.2163 C   0  0  0  0  0  0  0  0  0  0  0  0
  -42.8520   59.4834   62.6535 C   0  0  0  0  0  0  0  0  0  0  0  0
  -43.9413   59.9923   61.6900 C   0  0  0  0  0  0  0  0  0  0  0  0
  -44.1525   59.0744   60.5678 C   0  0  0  0  0  0  0  0  0  0  0  0
  -45.5836   58.8814   60.1522 C   0  0  0  0  0  0  0  0  0  0  0  0
  -46.1871   57.5879   60.5651 C   0  0  0  0  0  0  0  0  0  0  0  0
  -47.5475   57.3365   59.9619 C   0  0  0  0  0  0  0  0  0  0  0  0
  -48.1175   56.0362   60.4875 C   0  0  0  0  0  0  0  0  0  0  0  0
  -49.5417   55.8481   60.0256 C   0  0  0  0  0  0  0  0  0  0  0  0
  1  2  1  0
  1  3  1  0
  1  4  1  0
  3  5  1  0
  5  6  1  0
  6  7  1  0
  7  8  1  0
  8  9  1  0
  9 10  1  0
 10 11  1  0
 11 12  1  0
 12 13  1  0
 13 14  1  0
 14 15  1  0
 15 16  1  0
 16 17  1  0
 17 18  1  0
 18 19  1  0
 19 20  1  0
M  END
$$$$
