
     RDKit          3D

 20 19  0  0  0  0  0  0  0  0999 V2000
  -49.9416   45.1805   48.9163 C   0  0  0  0  0  0  0  0  0  0  0  0
  -48.8810   44.8566   49.7666 O   0  0  0  0  0  0  0  0  0  0  0  0
  -51.1070   45.5932   49.8224 C   0  0  0  0  0  0  0  0  0  0  0  0
  -49.5979   46.2255   48.0608 O   0  0  0  0  0  0  0  0  0  0  0  0
  -51.6189   44.3409   50.4626 C   0  0  0  0  0  0  0  0  0  0  0  0
  -53.0971   44.1213   50.2952 C   0  0  0  0  0  0  0  0  0  0  0  0
  -53.8764   44.5526   51.5164 C   0  0  0  0  0  0  0  0  0  0  0  0
  -54.7800   43.4146   51.8865 C   0  0  0  0  0  0  0  0  0  0  0  0
  -54.5336   42.8895   53.3049 C   0  0  0  0  0  0  0  0  0  0  0  0
  -55.5970   43.2649   54.2437 C   0  0  0  0  0  0  0  0  0  0  0  0
  -55.8710   42.3184   55.3276 C   0  0  0  0  0  0  0  0  0  0  0  0
  -55.8793   42.7669   56.7201 C   0  0  0  0  0  0  0  0  0  0  0  0
  -57.1517   43.2039   57.3593 C   0  0  0  0  0  0  0  0  0  0  0  0
  -56.8442   43.8256   58.7351 C   0  0  0  0  0  0  0  0  0  0  0  0
  -58.0268   44.4545   59.3289 C   0  0  0  0  0  0  0  0  0  0  0  0
  -57.7470   45.5478   60.3210 C   0  0  0  0  0  0  0  0  0  0  0  0
  -57.4428   46.8737   59.7232 C   0  0  0  0  0  0  0  0  0  0  0  0
  -58.1572   48.0188   60.3987 C   0  0  0  0  0  0  0  0  0  0  0  0
  -58.9951   48.7763   59.3907 C   0  0  0  0  0  0  0  0  0  0  0  0
  -59.7880   49.8694   60.0642 C   0  0  0  0  0  0  0  0  0  0  0  0
  1  2  1  0
  1  3  1  0
  1  4  1  0
  3  5  1  0
  5  6  1  0
  6  7  1  0
  7  8  1  0
  8  9  1  0
  9 10  1  0
 10 11  1  0
 11 12  1  0
 12 13  1  0
 13 14  1  0
 14 15  1  0
 15 16  1  0
 16 17  1  0
 17 18  1  0
 18 19  1  0
 19 20  1  0
M  END
$$$$
