
     RDKit          3D

 20 19  0  0  0  0  0  0  0  0999 V2000
  -55.7030   17.7628   55.4155 C   0  0  0  0  0  0  0  0  0  0  0  0
  -55.7564   16.5390   54.7428 O   0  0  0  0  0  0  0  0  0  0  0  0
  -54.2197   18.0396   55.6850 C   0  0  0  0  0  0  0  0  0  0  0  0
  -56.2554   18.7838   54.6443 O   0  0  0  0  0  0  0  0  0  0  0  0
  -54.0034   17.8358   57.1519 C   0  0  0  0  0  0  0  0  0  0  0  0
  -52.8470   16.9346   57.4864 C   0  0  0  0  0  0  0  0  0  0  0  0
  -51.6980   17.6938   58.1094 C   0  0  0  0  0  0  0  0  0  0  0  0
  -50.4904   17.4420   57.2570 C   0  0  0  0  0  0  0  0  0  0  0  0
  -49.2633   18.2445   57.7028 C   0  0  0  0  0  0  0  0  0  0  0  0
  -48.0918   18.0137   56.8498 C   0  0  0  0  0  0  0  0  0  0  0  0
  -47.4676   19.2041   56.2672 C   0  0  0  0  0  0  0  0  0  0  0  0
  -46.8506   20.2144   57.1267 C   0  0  0  0  0  0  0  0  0  0  0  0
  -47.6599   21.3513   57.6474 C   0  0  0  0  0  0  0  0  0  0  0  0
  -47.7721   22.4376   56.5605 C   0  0  0  0  0  0  0  0  0  0  0  0
  -49.1601   22.6557   56.1451 C   0  0  0  0  0  0  0  0  0  0  0  0
  -49.6055   24.0904   56.1098 C   0  0  0  0  0  0  0  0  0  0  0  0
  -50.7010   24.4299   57.0544 C   0  0  0  0  0  0  0  0  0  0  0  0
  -51.1532   25.8670   56.9633 C   0  0  0  0  0  0  0  0  0  0  0  0
  -52.4024   25.9664   56.1139 C   0  0  0  0  0  0  0  0  0  0  0  0
  -53.0876   27.2952   56.3195 C   0  0  0  0  0  0  0  0  0  0  0  0
  1  2  1  0
  1  3  1  0
  1  4  1  0
  3  5  1  0
  5  6  1  0
  6  7  1  0
  7  8  1  0
  8  9  1  0
  9 10  1  0
 10 11  1  0
 11 12  1  0
 12 13  1  0
 13 14  1  0
 14 15  1  0
 15 16  1  0
 16 17  1  0
 17 18  1  0
 18 19  1  0
 19 20  1  0
M  END
$$$$
