
     RDKit          3D

 60 62  0  0  0  0  0  0  0  0999 V2000
  -33.5138   60.4569   64.8717 N   0  0  0  0  0  0  0  0  0  0  0  0
  -52.0267   54.8714   68.3202 C   0  0  0  0  0  0  0  0  0  0  0  0
  -35.1683   60.3332   66.4087 O   0  0  0  0  0  0  0  0  0  0  0  0
  -51.3647   55.6054   67.2375 C   0  0  0  0  0  0  0  0  0  0  0  0
  -31.2671   65.1018   61.6275 N   0  0  0  0  0  0  0  0  0  0  0  0
  -33.0717   65.1873   60.1554 O   0  0  0  0  0  0  0  0  0  0  0  0
  -51.0484   54.8356   66.0207 C   0  0  0  0  0  0  0  0  0  0  0  0
  -33.9465   66.8938   61.7240 N   0  0  0  0  0  0  0  0  0  0  0  0
  -35.6720   65.7134   62.4760 O   0  0  0  0  0  0  0  0  0  0  0  0
  -50.2757   55.4816   64.9518 C   0  0  0  0  0  0  0  0  0  0  0  0
  -26.8265   62.0809   62.2648 N   0  0  0  0  0  0  0  0  0  0  0  0
  -37.8133   66.1087   61.8968 O   0  0  0  0  0  0  0  0  0  0  0  0
  -51.0402   56.0722   63.7986 C   0  0  0  0  0  0  0  0  0  0  0  0
  -23.9321   63.0535   64.1665 N   0  0  0  0  0  0  0  0  0  0  0  0
  -30.9821   65.6667   59.3515 O   0  0  0  0  0  0  0  0  0  0  0  0
  -50.1483   56.7406   62.8066 C   0  0  0  0  0  0  0  0  0  0  0  0
  -29.0254   64.5272   59.0593 O   0  0  0  0  0  0  0  0  0  0  0  0
  -48.7787   57.1022   63.1649 C   0  0  0  0  0  0  0  0  0  0  0  0
  -28.9311   63.1376   62.0155 O   0  0  0  0  0  0  0  0  0  0  0  0
  -48.2406   58.4653   63.1634 C   0  0  0  0  0  0  0  0  0  0  0  0
  -24.5197   61.1731   62.8908 O   0  0  0  0  0  0  0  0  0  0  0  0
  -46.8816   58.6300   63.7199 C   0  0  0  0  0  0  0  0  0  0  0  0
  -45.7953   58.2592   62.7248 C   0  0  0  0  0  0  0  0  0  0  0  0
  -44.8573   57.2837   63.3022 C   0  0  0  0  0  0  0  0  0  0  0  0
  -43.4234   57.5074   63.4085 C   0  0  0  0  0  0  0  0  0  0  0  0
  -42.7009   58.7582   63.2111 C   0  0  0  0  0  0  0  0  0  0  0  0
  -41.2241   58.7549   63.1182 C   0  0  0  0  0  0  0  0  0  0  0  0
  -40.5660   59.1297   64.4546 C   0  0  0  0  0  0  0  0  0  0  0  0
  -39.0771   58.9181   64.3135 C   0  0  0  0  0  0  0  0  0  0  0  0
  -38.3232   60.1698   64.0358 C   0  0  0  0  0  0  0  0  0  0  0  0
  -37.1876   60.4319   64.9886 C   0  0  0  0  0  0  0  0  0  0  0  0
  -35.9046   60.7205   64.1825 C   0  0  0  0  0  0  0  0  0  0  0  0
  -34.7921   60.9037   65.1408 C   0  0  2  0  0  0  0  0  0  0  0  0
  -32.4216   61.2455   64.5153 C   0  0  0  0  0  0  0  0  0  0  0  0
  -32.4023   61.7088   63.0545 C   0  0  0  0  0  0  0  0  0  0  0  0
  -31.1422   62.4154   62.7340 C   0  0  0  0  0  0  0  0  0  0  0  0
  -30.7377   62.7874   61.3896 C   0  0  0  0  0  0  0  0  0  0  0  0
  -30.2982   64.1650   61.0216 C   0  0  1  0  0  0  0  0  0  0  0  0
  -32.6214   64.8597   61.4506 C   0  0  0  0  0  0  0  0  0  0  0  0
  -33.3665   65.7939   62.4416 C   0  0  1  0  0  0  0  0  0  0  0  0
  -32.3905   66.2290   63.4902 C   0  0  0  0  0  0  0  0  0  0  0  0
  -34.5392   65.1214   63.0716 C   0  0  0  0  0  0  0  0  0  0  0  0
  -35.2589   67.0458   62.3005 C   0  0  0  0  0  0  0  0  0  0  0  0
  -36.2111   67.7361   61.3288 C   0  0  2  0  0  0  0  0  0  0  0  0
  -35.9080   69.1889   61.1843 C   0  0  0  0  0  0  0  0  0  0  0  0
  -36.9450   70.1098   61.7417 C   0  0  0  0  0  0  0  0  0  0  0  0
  -37.5082   69.6175   63.0551 C   0  0  0  0  0  0  0  0  0  0  0  0
  -38.0585   68.2331   62.9585 C   0  0  0  0  0  0  0  0  0  0  0  0
  -37.6437   67.4981   61.7176 C   0  0  0  0  0  0  0  0  0  0  0  0
  -30.3418   64.4393   59.5585 C   0  0  0  0  0  0  0  0  0  0  0  0
  -28.0998   64.6962   60.0824 C   0  0  2  0  0  0  0  0  0  0  0  0
  -27.1754   65.8429   59.8449 C   0  0  0  0  0  0  0  0  0  0  0  0
  -27.3578   63.3971   60.2300 C   0  0  0  0  0  0  0  0  0  0  0  0
  -27.8201   62.5500   61.3825 C   0  0  0  0  0  0  0  0  0  0  0  0
  -26.0670   63.0141   63.0040 C   0  0  1  0  0  0  0  0  0  0  0  0
  -26.4523   63.1084   64.4663 C   0  0  0  0  0  0  0  0  0  0  0  0
  -26.1961   61.8285   65.2162 C   0  0  0  0  0  0  0  0  0  0  0  0
  -24.9288   61.9252   66.0391 C   0  0  0  0  0  0  0  0  0  0  0  0
  -23.7423   61.9629   65.1161 C   0  0  0  0  0  0  0  0  0  0  0  0
  -24.6066   62.5503   62.9770 C   0  0  0  0  0  0  0  0  0  0  0  0
  1 33  1  0
  1 34  1  0
  2  4  1  0
 33  3  1  1
  4  7  1  0
  5 38  1  0
  5 39  1  0
  6 39  1  0
  7 10  1  0
  8 40  1  0
  8 43  1  0
  9 42  1  0
  9 43  1  0
 10 13  1  0
 11 54  1  0
 55 11  1  6
 12 49  1  0
 13 16  1  0
 14 59  1  0
 14 60  1  0
 15 50  1  0
 16 18  1  0
 17 50  1  0
 17 51  1  0
 18 20  1  0
 19 54  1  0
 20 22  1  0
 21 60  1  0
 22 23  1  0
 23 24  1  0
 24 25  1  0
 25 26  1  0
 26 27  1  0
 27 28  1  0
 28 29  1  0
 29 30  1  0
 30 31  1  0
 31 32  1  0
 32 33  1  0
 34 35  1  0
 35 36  1  0
 36 37  1  0
 38 37  1  6
 38 50  1  0
 39 40  1  0
 40 41  1  1
 40 42  1  0
 44 43  1  1
 44 45  1  0
 44 49  1  0
 45 46  1  0
 46 47  1  0
 47 48  1  0
 48 49  1  0
 51 52  1  6
 51 53  1  0
 53 54  1  0
 55 56  1  0
 55 60  1  0
 56 57  1  0
 57 58  1  0
 58 59  1  0
M  END
$$$$
