
     RDKit          3D

 60 62  0  0  0  0  0  0  0  0999 V2000
  -29.7425   59.2121   63.9638 N   0  0  0  0  0  0  0  0  0  0  0  0
  -18.2941   47.5488   61.8237 C   0  0  0  0  0  0  0  0  0  0  0  0
  -27.5948   59.0621   63.2708 O   0  0  0  0  0  0  0  0  0  0  0  0
  -18.0553   46.6250   62.9368 C   0  0  0  0  0  0  0  0  0  0  0  0
  -32.1580   64.1909   62.5557 N   0  0  0  0  0  0  0  0  0  0  0  0
  -33.6708   65.7605   61.7318 O   0  0  0  0  0  0  0  0  0  0  0  0
  -18.5912   47.0275   64.2498 C   0  0  0  0  0  0  0  0  0  0  0  0
  -30.9022   66.4000   62.8628 N   0  0  0  0  0  0  0  0  0  0  0  0
  -31.9121   68.2964   62.2973 O   0  0  0  0  0  0  0  0  0  0  0  0
  -19.8468   47.7875   64.3024 C   0  0  0  0  0  0  0  0  0  0  0  0
  -37.4105   62.3033   62.1707 N   0  0  0  0  0  0  0  0  0  0  0  0
  -31.4593   67.7543   60.0498 O   0  0  0  0  0  0  0  0  0  0  0  0
  -20.9676   47.2247   65.1332 C   0  0  0  0  0  0  0  0  0  0  0  0
  -39.3468   60.7367   64.7661 N   0  0  0  0  0  0  0  0  0  0  0  0
  -34.2951   63.9063   64.0322 O   0  0  0  0  0  0  0  0  0  0  0  0
  -22.3119   47.5823   64.5933 C   0  0  0  0  0  0  0  0  0  0  0  0
  -34.5947   62.9037   62.0030 O   0  0  0  0  0  0  0  0  0  0  0  0
  -23.5267   47.1027   65.2483 C   0  0  0  0  0  0  0  0  0  0  0  0
  -36.6710   62.8671   59.9927 O   0  0  0  0  0  0  0  0  0  0  0  0
  -24.7659   47.8719   65.3902 C   0  0  0  0  0  0  0  0  0  0  0  0
  -39.8211   62.2316   63.0201 O   0  0  0  0  0  0  0  0  0  0  0  0
  -25.3397   48.4190   64.1431 C   0  0  0  0  0  0  0  0  0  0  0  0
  -26.7252   47.8699   63.8489 C   0  0  0  0  0  0  0  0  0  0  0  0
  -27.5142   48.8208   63.0501 C   0  0  0  0  0  0  0  0  0  0  0  0
  -28.7557   49.4255   63.5086 C   0  0  0  0  0  0  0  0  0  0  0  0
  -29.7847   50.0674   62.6996 C   0  0  0  0  0  0  0  0  0  0  0  0
  -29.4917   51.3363   61.9971 C   0  0  0  0  0  0  0  0  0  0  0  0
  -29.7986   52.5597   62.8738 C   0  0  0  0  0  0  0  0  0  0  0  0
  -28.9248   53.6982   62.4030 C   0  0  0  0  0  0  0  0  0  0  0  0
  -29.0898   54.9425   63.2009 C   0  0  0  0  0  0  0  0  0  0  0  0
  -28.1743   56.0654   62.7918 C   0  0  0  0  0  0  0  0  0  0  0  0
  -29.0157   57.3231   62.4928 C   0  0  0  0  0  0  0  0  0  0  0  0
  -28.7791   58.3018   63.5771 C   0  0  2  0  0  0  0  0  0  0  0  0
  -29.9750   60.4612   63.3914 C   0  0  0  0  0  0  0  0  0  0  0  0
  -29.2809   61.6362   64.0889 C   0  0  0  0  0  0  0  0  0  0  0  0
  -30.2265   62.7482   64.3322 C   0  0  0  0  0  0  0  0  0  0  0  0
  -31.6716   62.6134   64.2785 C   0  0  0  0  0  0  0  0  0  0  0  0
  -32.4652   62.8266   63.0331 C   0  0  1  0  0  0  0  0  0  0  0  0
  -33.0389   65.2157   62.8683 C   0  0  0  0  0  0  0  0  0  0  0  0
  -32.1866   66.3479   63.5020 C   0  0  1  0  0  0  0  0  0  0  0  0
  -32.0975   66.0913   64.9742 C   0  0  0  0  0  0  0  0  0  0  0  0
  -32.7676   67.6973   63.2448 C   0  0  0  0  0  0  0  0  0  0  0  0
  -30.6503   67.8072   62.6783 C   0  0  0  0  0  0  0  0  0  0  0  0
  -29.6621   68.0458   61.5408 C   0  0  2  0  0  0  0  0  0  0  0  0
  -28.5200   68.9068   61.9623 C   0  0  0  0  0  0  0  0  0  0  0  0
  -28.4810   70.2603   61.3292 C   0  0  0  0  0  0  0  0  0  0  0  0
  -29.8528   70.8850   61.2177 C   0  0  0  0  0  0  0  0  0  0  0  0
  -30.8214   70.0126   60.4902 C   0  0  0  0  0  0  0  0  0  0  0  0
  -30.3596   68.5940   60.3271 C   0  0  0  0  0  0  0  0  0  0  0  0
  -33.9387   62.8031   63.2477 C   0  0  0  0  0  0  0  0  0  0  0  0
  -34.3231   61.8088   61.1909 C   0  0  2  0  0  0  0  0  0  0  0  0
  -33.7773   62.1964   59.8577 C   0  0  0  0  0  0  0  0  0  0  0  0
  -35.5963   61.0187   61.0691 C   0  0  0  0  0  0  0  0  0  0  0  0
  -36.8370   61.8605   60.9620 C   0  0  0  0  0  0  0  0  0  0  0  0
  -37.5772   61.3844   63.2299 C   0  0  1  0  0  0  0  0  0  0  0  0
  -37.0945   61.8919   64.5734 C   0  0  0  0  0  0  0  0  0  0  0  0
  -37.8804   63.0801   65.0599 C   0  0  0  0  0  0  0  0  0  0  0  0
  -38.8865   62.6712   66.1149 C   0  0  0  0  0  0  0  0  0  0  0  0
  -39.9701   61.8504   65.4721 C   0  0  0  0  0  0  0  0  0  0  0  0
  -39.0793   61.1240   63.3872 C   0  0  0  0  0  0  0  0  0  0  0  0
  1 33  1  0
  1 34  1  0
  2  4  1  0
 33  3  1  6
  4  7  1  0
  5 38  1  0
  5 39  1  0
  6 39  1  0
  7 10  1  0
  8 40  1  0
  8 43  1  0
  9 42  1  0
  9 43  1  0
 10 13  1  0
 11 54  1  0
 55 11  1  6
 12 49  1  0
 13 16  1  0
 14 59  1  0
 14 60  1  0
 15 50  1  0
 16 18  1  0
 17 50  1  0
 17 51  1  0
 18 20  1  0
 19 54  1  0
 20 22  1  0
 21 60  1  0
 22 23  1  0
 23 24  1  0
 24 25  1  0
 25 26  1  0
 26 27  1  0
 27 28  1  0
 28 29  1  0
 29 30  1  0
 30 31  1  0
 31 32  1  0
 32 33  1  0
 34 35  1  0
 35 36  1  0
 36 37  1  0
 38 37  1  1
 38 50  1  0
 39 40  1  0
 40 41  1  1
 40 42  1  0
 44 43  1  1
 44 45  1  0
 44 49  1  0
 45 46  1  0
 46 47  1  0
 47 48  1  0
 48 49  1  0
 51 52  1  6
 51 53  1  0
 53 54  1  0
 55 56  1  0
 55 60  1  0
 56 57  1  0
 57 58  1  0
 58 59  1  0
M  END
$$$$
