
     RDKit          3D

 60 62  0  0  0  0  0  0  0  0999 V2000
  -28.6562   63.0098   61.5614 N   0  0  0  0  0  0  0  0  0  0  0  0
  -31.4574   49.4990   69.0773 C   0  0  0  0  0  0  0  0  0  0  0  0
  -27.3593   63.9501   59.9648 O   0  0  0  0  0  0  0  0  0  0  0  0
  -31.3084   50.9572   69.1072 C   0  0  0  0  0  0  0  0  0  0  0  0
  -34.0511   62.8283   61.4076 N   0  0  0  0  0  0  0  0  0  0  0  0
  -34.0217   60.5446   60.9445 O   0  0  0  0  0  0  0  0  0  0  0  0
  -31.0911   51.6211   67.8091 C   0  0  0  0  0  0  0  0  0  0  0  0
  -36.2752   61.1862   62.2662 N   0  0  0  0  0  0  0  0  0  0  0  0
  -35.8768   59.2129   63.2062 O   0  0  0  0  0  0  0  0  0  0  0  0
  -30.4245   52.9296   67.7828 C   0  0  0  0  0  0  0  0  0  0  0  0
  -34.3788   65.1085   65.3896 N   0  0  0  0  0  0  0  0  0  0  0  0
  -39.6313   60.4943   63.3292 O   0  0  0  0  0  0  0  0  0  0  0  0
  -30.2959   53.6193   66.4520 C   0  0  0  0  0  0  0  0  0  0  0  0
  -32.6866   65.3811   68.5522 N   0  0  0  0  0  0  0  0  0  0  0  0
  -36.2446   65.1173   62.7439 O   0  0  0  0  0  0  0  0  0  0  0  0
  -30.3399   55.1058   66.5743 C   0  0  0  0  0  0  0  0  0  0  0  0
  -34.7462   65.9873   61.2571 O   0  0  0  0  0  0  0  0  0  0  0  0
  -30.7204   55.9338   65.4321 C   0  0  0  0  0  0  0  0  0  0  0  0
  -36.1833   66.5097   64.7661 O   0  0  0  0  0  0  0  0  0  0  0  0
  -32.0683   56.4501   65.1791 C   0  0  0  0  0  0  0  0  0  0  0  0
  -32.9062   63.6976   66.9317 O   0  0  0  0  0  0  0  0  0  0  0  0
  -32.3387   56.9199   63.8044 C   0  0  0  0  0  0  0  0  0  0  0  0
  -31.1767   56.6611   62.8607 C   0  0  0  0  0  0  0  0  0  0  0  0
  -31.6547   56.2991   61.5171 C   0  0  0  0  0  0  0  0  0  0  0  0
  -30.7728   56.0291   60.3917 C   0  0  0  0  0  0  0  0  0  0  0  0
  -29.3149   56.0127   60.3876 C   0  0  0  0  0  0  0  0  0  0  0  0
  -28.5654   56.9330   59.5040 C   0  0  0  0  0  0  0  0  0  0  0  0
  -27.0465   56.7794   59.6744 C   0  0  0  0  0  0  0  0  0  0  0  0
  -26.4286   58.1547   59.5843 C   0  0  0  0  0  0  0  0  0  0  0  0
  -27.4160   59.2591   59.7165 C   0  0  0  0  0  0  0  0  0  0  0  0
  -26.8140   60.6375   59.6557 C   0  0  0  0  0  0  0  0  0  0  0  0
  -27.9451   61.6821   59.5634 C   0  0  0  0  0  0  0  0  0  0  0  0
  -27.7087   62.7075   60.6038 C   0  0  2  0  0  0  0  0  0  0  0  0
  -29.8835   62.3738   61.7380 C   0  0  0  0  0  0  0  0  0  0  0  0
  -31.1092   63.2013   61.3355 C   0  0  0  0  0  0  0  0  0  0  0  0
  -31.6609   63.9384   62.4941 C   0  0  0  0  0  0  0  0  0  0  0  0
  -32.9314   64.6419   62.4802 C   0  0  0  0  0  0  0  0  0  0  0  0
  -34.2465   63.9488   62.3510 C   0  0  1  0  0  0  0  0  0  0  0  0
  -33.8843   61.5511   61.9221 C   0  0  0  0  0  0  0  0  0  0  0  0
  -35.0249   61.3422   62.9543 C   0  0  1  0  0  0  0  0  0  0  0  0
  -35.0163   62.5064   63.8954 C   0  0  0  0  0  0  0  0  0  0  0  0
  -34.8711   60.0645   63.7081 C   0  0  0  0  0  0  0  0  0  0  0  0
  -36.9334   60.1069   62.9589 C   0  0  0  0  0  0  0  0  0  0  0  0
  -37.9618   59.4231   62.0632 C   0  0  2  0  0  0  0  0  0  0  0  0
  -37.4193   59.1380   60.7038 C   0  0  0  0  0  0  0  0  0  0  0  0
  -38.0357   59.9321   59.5976 C   0  0  0  0  0  0  0  0  0  0  0  0
  -38.2831   61.3710   59.9886 C   0  0  0  0  0  0  0  0  0  0  0  0
  -39.1122   61.4938   61.2239 C   0  0  0  0  0  0  0  0  0  0  0  0
  -39.2369   60.2171   62.0030 C   0  0  0  0  0  0  0  0  0  0  0  0
  -35.3148   64.7937   61.7489 C   0  0  0  0  0  0  0  0  0  0  0  0
  -34.8896   67.0334   62.1611 C   0  0  2  0  0  0  0  0  0  0  0  0
  -34.3671   68.3288   61.6372 C   0  0  0  0  0  0  0  0  0  0  0  0
  -34.1992   66.6212   63.4314 C   0  0  0  0  0  0  0  0  0  0  0  0
  -35.0472   65.7896   64.3527 C   0  0  0  0  0  0  0  0  0  0  0  0
  -33.9261   65.8376   66.5111 C   0  0  1  0  0  0  0  0  0  0  0  0
  -34.9606   65.9969   67.6066 C   0  0  0  0  0  0  0  0  0  0  0  0
  -35.3572   64.6825   68.2239 C   0  0  0  0  0  0  0  0  0  0  0  0
  -34.6736   64.4812   69.5598 C   0  0  0  0  0  0  0  0  0  0  0  0
  -33.2030   64.2634   69.3341 C   0  0  0  0  0  0  0  0  0  0  0  0
  -32.7627   65.0579   67.1335 C   0  0  0  0  0  0  0  0  0  0  0  0
  1 33  1  0
  1 34  1  0
  2  4  1  0
 33  3  1  6
  4  7  1  0
  5 38  1  0
  5 39  1  0
  6 39  1  0
  7 10  1  0
  8 40  1  0
  8 43  1  0
  9 42  1  0
  9 43  1  0
 10 13  1  0
 11 54  1  0
 55 11  1  6
 12 49  1  0
 13 16  1  0
 14 59  1  0
 14 60  1  0
 15 50  1  0
 16 18  1  0
 17 50  1  0
 17 51  1  0
 18 20  1  0
 19 54  1  0
 20 22  1  0
 21 60  1  0
 22 23  1  0
 23 24  1  0
 24 25  1  0
 25 26  1  0
 26 27  1  0
 27 28  1  0
 28 29  1  0
 29 30  1  0
 30 31  1  0
 31 32  1  0
 32 33  1  0
 34 35  1  0
 35 36  1  0
 36 37  1  0
 38 37  1  6
 38 50  1  0
 39 40  1  0
 40 41  1  1
 40 42  1  0
 44 43  1  1
 44 45  1  0
 44 49  1  0
 45 46  1  0
 46 47  1  0
 47 48  1  0
 48 49  1  0
 51 52  1  6
 51 53  1  0
 53 54  1  0
 55 56  1  0
 55 60  1  0
 56 57  1  0
 57 58  1  0
 58 59  1  0
M  END
$$$$
