
     RDKit          3D

 60 62  0  0  0  0  0  0  0  0999 V2000
  -35.4311   61.5376   60.6067 N   0  0  0  0  0  0  0  0  0  0  0  0
  -23.0481   47.4109   65.7009 C   0  0  0  0  0  0  0  0  0  0  0  0
  -37.4076   60.5389   60.1473 O   0  0  0  0  0  0  0  0  0  0  0  0
  -23.9288   48.5644   65.4927 C   0  0  0  0  0  0  0  0  0  0  0  0
  -32.6289   67.2737   63.9872 N   0  0  0  0  0  0  0  0  0  0  0  0
  -31.1022   65.5150   64.0722 O   0  0  0  0  0  0  0  0  0  0  0  0
  -24.0244   49.0763   64.1136 C   0  0  0  0  0  0  0  0  0  0  0  0
  -29.2468   68.0811   63.6161 N   0  0  0  0  0  0  0  0  0  0  0  0
  -30.3260   69.9983   63.9258 O   0  0  0  0  0  0  0  0  0  0  0  0
  -25.0044   50.1278   63.8121 C   0  0  0  0  0  0  0  0  0  0  0  0
  -37.7408   63.0679   65.6044 N   0  0  0  0  0  0  0  0  0  0  0  0
  -26.3460   69.0191   63.4084 O   0  0  0  0  0  0  0  0  0  0  0  0
  -25.1398   50.5637   62.3786 C   0  0  0  0  0  0  0  0  0  0  0  0
  -38.4954   59.7890   64.3319 N   0  0  0  0  0  0  0  0  0  0  0  0
  -36.1116   66.8073   63.5798 O   0  0  0  0  0  0  0  0  0  0  0  0
  -25.9894   51.7815   62.2315 C   0  0  0  0  0  0  0  0  0  0  0  0
  -35.0041   65.9119   65.3642 O   0  0  0  0  0  0  0  0  0  0  0  0
  -27.0901   52.0354   63.1583 C   0  0  0  0  0  0  0  0  0  0  0  0
  -37.5405   65.0425   64.3126 O   0  0  0  0  0  0  0  0  0  0  0  0
  -28.4595   52.3775   62.7646 C   0  0  0  0  0  0  0  0  0  0  0  0
  -39.1536   61.0261   66.2147 O   0  0  0  0  0  0  0  0  0  0  0  0
  -28.7359   53.8129   62.5477 C   0  0  0  0  0  0  0  0  0  0  0  0
  -30.0536   54.0509   61.8302 C   0  0  0  0  0  0  0  0  0  0  0  0
  -31.0841   54.5377   62.7606 C   0  0  0  0  0  0  0  0  0  0  0  0
  -31.7644   55.8158   62.6155 C   0  0  0  0  0  0  0  0  0  0  0  0
  -31.7216   56.9548   63.5245 C   0  0  0  0  0  0  0  0  0  0  0  0
  -32.8609   57.8969   63.5871 C   0  0  0  0  0  0  0  0  0  0  0  0
  -34.0786   57.2764   64.2885 C   0  0  0  0  0  0  0  0  0  0  0  0
  -35.2729   58.1582   64.0104 C   0  0  0  0  0  0  0  0  0  0  0  0
  -36.0045   57.7926   62.7682 C   0  0  0  0  0  0  0  0  0  0  0  0
  -37.1322   58.7260   62.4173 C   0  0  0  0  0  0  0  0  0  0  0  0
  -36.5939   60.1699   62.3496 C   0  0  0  0  0  0  0  0  0  0  0  0
  -36.2133   60.4523   60.9478 C   0  0  2  0  0  0  0  0  0  0  0  0
  -34.3321   62.0186   61.3158 C   0  0  0  0  0  0  0  0  0  0  0  0
  -34.6543   63.0767   62.3766 C   0  0  0  0  0  0  0  0  0  0  0  0
  -33.6928   64.2002   62.3209 C   0  0  0  0  0  0  0  0  0  0  0  0
  -33.4163   65.0901   63.4348 C   0  0  0  0  0  0  0  0  0  0  0  0
  -33.7840   66.5362   63.4346 C   0  0  1  0  0  0  0  0  0  0  0  0
  -31.3512   66.8413   63.6638 C   0  0  0  0  0  0  0  0  0  0  0  0
  -30.3689   67.7516   64.4488 C   0  0  1  0  0  0  0  0  0  0  0  0
  -29.9761   67.0350   65.7032 C   0  0  0  0  0  0  0  0  0  0  0  0
  -30.9717   69.0762   64.7751 C   0  0  0  0  0  0  0  0  0  0  0  0
  -29.0194   69.4836   63.8594 C   0  0  0  0  0  0  0  0  0  0  0  0
  -28.2890   70.1348   62.6890 C   0  0  2  0  0  0  0  0  0  0  0  0
  -29.2064   70.4316   61.5516 C   0  0  0  0  0  0  0  0  0  0  0  0
  -28.9717   69.6169   60.3206 C   0  0  0  0  0  0  0  0  0  0  0  0
  -28.6572   68.1725   60.6358 C   0  0  0  0  0  0  0  0  0  0  0  0
  -27.4992   68.0292   61.5671 C   0  0  0  0  0  0  0  0  0  0  0  0
  -27.1125   69.3039   62.2584 C   0  0  0  0  0  0  0  0  0  0  0  0
  -34.9296   66.8654   64.3274 C   0  0  0  0  0  0  0  0  0  0  0  0
  -35.8940   66.3038   66.3575 C   0  0  2  0  0  0  0  0  0  0  0  0
  -35.2105   66.7360   67.6112 C   0  0  0  0  0  0  0  0  0  0  0  0
  -36.8299   65.1517   66.5959 C   0  0  0  0  0  0  0  0  0  0  0  0
  -37.0555   64.2807   65.3918 C   0  0  0  0  0  0  0  0  0  0  0  0
  -37.6899   62.0660   64.6106 C   0  0  1  0  0  0  0  0  0  0  0  0
  -36.4272   61.2290   64.6373 C   0  0  0  0  0  0  0  0  0  0  0  0
  -36.2919   60.4253   65.9029 C   0  0  0  0  0  0  0  0  0  0  0  0
  -36.6725   58.9783   65.6711 C   0  0  0  0  0  0  0  0  0  0  0  0
  -38.1539   58.8901   65.4285 C   0  0  0  0  0  0  0  0  0  0  0  0
  -38.8490   61.0969   64.8678 C   0  0  0  0  0  0  0  0  0  0  0  0
  1 33  1  0
  1 34  1  0
  2  4  1  0
 33  3  1  6
  4  7  1  0
  5 38  1  0
  5 39  1  0
  6 39  1  0
  7 10  1  0
  8 40  1  0
  8 43  1  0
  9 42  1  0
  9 43  1  0
 10 13  1  0
 11 54  1  0
 55 11  1  1
 12 49  1  0
 13 16  1  0
 14 59  1  0
 14 60  1  0
 15 50  1  0
 16 18  1  0
 17 50  1  0
 17 51  1  0
 18 20  1  0
 19 54  1  0
 20 22  1  0
 21 60  1  0
 22 23  1  0
 23 24  1  0
 24 25  1  0
 25 26  1  0
 26 27  1  0
 27 28  1  0
 28 29  1  0
 29 30  1  0
 30 31  1  0
 31 32  1  0
 32 33  1  0
 34 35  1  0
 35 36  1  0
 36 37  1  0
 38 37  1  1
 38 50  1  0
 39 40  1  0
 40 41  1  1
 40 42  1  0
 44 43  1  1
 44 45  1  0
 44 49  1  0
 45 46  1  0
 46 47  1  0
 47 48  1  0
 48 49  1  0
 51 52  1  1
 51 53  1  0
 53 54  1  0
 55 56  1  0
 55 60  1  0
 56 57  1  0
 57 58  1  0
 58 59  1  0
M  END
$$$$
