
     RDKit          3D

 56 55  0  0  0  0  0  0  0  0999 V2000
  -36.2303   64.6861   67.1370 N   0  0  0  0  0  0  0  0  0  0  0  0
  -38.1484   65.8859   66.1296 C   0  0  1  0  0  0  0  0  0  0  0  0
  -38.6778   67.0568   66.5593 O   0  0  0  0  0  0  0  0  0  0  0  0
  -37.4327   66.7183   63.1241 P   0  0  0  0  0  5  0  0  0  0  0  0
  -38.6256   65.3050   64.8463 C   0  0  0  0  0  0  0  0  0  0  0  0
  -40.7556   68.9034   62.5643 N   0  0  1  0  0  4  0  0  0  0  0  0
  -34.2793   63.4587   67.7158 O   0  0  0  0  0  0  0  0  0  0  0  0
  -38.6461   63.8082   64.8722 C   0  0  0  0  0  0  0  0  0  0  0  0
  -37.1655   65.3813   64.0561 O   0  0  0  0  0  0  0  0  0  0  0  0
  -37.8344   63.1398   63.8144 C   0  0  0  0  0  0  0  0  0  0  0  0
  -36.5881   68.1183   63.4455 O   0  0  0  0  0  1  0  0  0  0  0  0
  -38.4088   61.7549   63.4641 C   0  0  0  0  0  0  0  0  0  0  0  0
  -38.6517   66.7164   62.0197 O   0  0  0  0  0  0  0  0  0  0  0  0
  -37.4483   61.1383   62.4872 C   0  0  0  0  0  0  0  0  0  0  0  0
  -36.3729   66.2771   62.1202 O   0  0  0  0  0  0  0  0  0  0  0  0
  -37.7826   59.7086   62.1072 C   0  0  0  0  0  0  0  0  0  0  0  0
  -36.5770   58.8621   61.9137 C   0  0  0  0  0  0  0  0  0  0  0  0
  -36.7036   57.8669   60.8406 C   0  0  0  0  0  0  0  0  0  0  0  0
  -37.8315   57.0034   60.5810 C   0  0  0  0  0  0  0  0  0  0  0  0
  -38.4518   56.7631   59.2686 C   0  0  0  0  0  0  0  0  0  0  0  0
  -39.5927   55.8163   59.3171 C   0  0  0  0  0  0  0  0  0  0  0  0
  -40.9216   56.4818   59.0150 C   0  0  0  0  0  0  0  0  0  0  0  0
  -41.2496   56.5215   57.5626 C   0  0  0  0  0  0  0  0  0  0  0  0
  -42.6575   56.9750   57.2720 C   0  0  0  0  0  0  0  0  0  0  0  0
  -42.8481   56.8778   55.7576 C   0  0  0  0  0  0  0  0  0  0  0  0
  -36.6298   65.7798   66.3075 C   0  0  2  0  0  0  0  0  0  0  0  0
  -35.0125   64.0934   66.7266 C   0  0  0  0  0  0  0  0  0  0  0  0
  -34.0817   64.9809   65.9334 C   0  0  0  0  0  0  0  0  0  0  0  0
  -33.6056   64.2931   64.6725 C   0  0  0  0  0  0  0  0  0  0  0  0
  -32.1075   64.6093   64.5285 C   0  0  0  0  0  0  0  0  0  0  0  0
  -31.5372   63.5118   63.6931 C   0  0  0  0  0  0  0  0  0  0  0  0
  -30.9233   63.8331   62.4198 C   0  0  0  0  0  0  0  0  0  0  0  0
  -29.8808   63.0890   61.7346 C   0  0  0  0  0  0  0  0  0  0  0  0
  -29.5259   61.7185   62.1055 C   0  0  0  0  0  0  0  0  0  0  0  0
  -29.0931   60.8438   60.9903 C   0  0  0  0  0  0  0  0  0  0  0  0
  -30.2585   59.9735   60.4838 C   0  0  0  0  0  0  0  0  0  0  0  0
  -30.2949   58.7794   61.3635 C   0  0  0  0  0  0  0  0  0  0  0  0
  -31.6438   58.4922   61.9656 C   0  0  0  0  0  0  0  0  0  0  0  0
  -31.8127   57.0512   62.3567 C   0  0  0  0  0  0  0  0  0  0  0  0
  -30.6918   56.1741   61.8664 C   0  0  0  0  0  0  0  0  0  0  0  0
  -30.7729   54.7667   62.3931 C   0  0  0  0  0  0  0  0  0  0  0  0
  -31.3765   53.9107   61.2998 C   0  0  0  0  0  0  0  0  0  0  0  0
  -31.1859   52.4183   61.5792 C   0  0  0  0  0  0  0  0  0  0  0  0
  -30.8709   51.6508   60.3395 C   0  0  0  0  0  0  0  0  0  0  0  0
  -31.0262   50.1825   60.5750 C   0  0  0  0  0  0  0  0  0  0  0  0
  -30.0379   49.6314   61.5864 C   0  0  0  0  0  0  0  0  0  0  0  0
  -30.8678   49.1300   62.7567 C   0  0  0  0  0  0  0  0  0  0  0  0
  -30.0472   48.3536   63.7573 C   0  0  0  0  0  0  0  0  0  0  0  0
  -30.5349   48.5631   65.1668 C   0  0  0  0  0  0  0  0  0  0  0  0
  -29.5664   47.9818   66.1750 C   0  0  0  0  0  0  0  0  0  0  0  0
  -36.0907   65.5984   64.8789 C   0  0  0  0  0  0  0  0  0  0  0  0
  -39.9155   66.5979   62.5202 C   0  0  0  0  0  0  0  0  0  0  0  0
  -40.8357   67.6081   61.9228 C   0  0  0  0  0  0  0  0  0  0  0  0
  -39.4092   69.0315   63.0904 C   0  0  0  0  0  0  0  0  0  0  0  0
  -40.9994   69.9963   61.6785 C   0  0  0  0  0  0  0  0  0  0  0  0
  -41.6650   68.9928   63.6991 C   0  0  0  0  0  0  0  0  0  0  0  0
  1 26  1  0
  1 27  1  0
  2  3  1  6
  2  5  1  0
  2 26  1  0
  4  9  1  0
  4 11  1  0
  4 13  1  0
  4 15  1  0
  5  8  1  0
  6 53  1  0
  6 54  1  1
  6 55  1  0
  6 56  1  0
  7 27  1  0
  8 10  1  0
  9 51  1  0
 10 12  1  0
 12 14  1  0
 13 52  1  0
 14 16  1  0
 16 17  1  0
 17 18  1  0
 18 19  1  0
 19 20  1  0
 20 21  1  0
 21 22  1  0
 22 23  1  0
 23 24  1  0
 24 25  1  0
 26 51  1  6
 27 28  1  0
 28 29  1  0
 29 30  1  0
 30 31  1  0
 31 32  1  0
 32 33  1  0
 33 34  1  0
 34 35  1  0
 35 36  1  0
 36 37  1  0
 37 38  1  0
 38 39  1  0
 39 40  1  0
 40 41  1  0
 41 42  1  0
 42 43  1  0
 43 44  1  0
 44 45  1  0
 45 46  1  0
 46 47  1  0
 47 48  1  0
 48 49  1  0
 49 50  1  0
 52 53  1  0
M  CHG  2   6   1  11  -1
M  END
$$$$
