
     RDKit          3D

 56 55  0  0  0  0  0  0  0  0999 V2000
  -41.8525   19.4703  115.2239 N   0  0  0  0  0  0  0  0  0  0  0  0
  -42.7367   20.2557  117.3998 C   0  0  1  0  0  0  0  0  0  0  0  0
  -43.7505   19.4027  117.1158 O   0  0  0  0  0  0  0  0  0  0  0  0
  -42.1432   24.2933  116.1049 P   0  0  0  0  0  5  0  0  0  0  0  0
  -42.0723   20.1715  118.7278 C   0  0  0  0  0  0  0  0  0  0  0  0
  -45.0139   27.4866  118.3271 N   0  0  1  0  0  4  0  0  0  0  0  0
  -40.9716   19.7404  113.0332 O   0  0  0  0  0  0  0  0  0  0  0  0
  -42.3897   18.8950  119.4428 C   0  0  0  0  0  0  0  0  0  0  0  0
  -41.8058   22.7745  116.6590 O   0  0  0  0  0  0  0  0  0  0  0  0
  -43.7667   18.8052  120.0088 C   0  0  0  0  0  0  0  0  0  0  0  0
  -41.9877   24.6211  114.4785 O   0  0  0  0  0  1  0  0  0  0  0  0
  -43.7890   17.9426  121.2839 C   0  0  0  0  0  0  0  0  0  0  0  0
  -42.4440   25.5069  117.1738 O   0  0  0  0  0  0  0  0  0  0  0  0
  -44.1850   18.8619  122.4043 C   0  0  0  0  0  0  0  0  0  0  0  0
  -43.6153   23.9402  115.9208 O   0  0  0  0  0  0  0  0  0  0  0  0
  -44.2466   18.1922  123.7636 C   0  0  0  0  0  0  0  0  0  0  0  0
  -44.7603   19.0897  124.8305 C   0  0  0  0  0  0  0  0  0  0  0  0
  -45.2352   18.3901  126.0316 C   0  0  0  0  0  0  0  0  0  0  0  0
  -44.4318   17.7022  127.0149 C   0  0  0  0  0  0  0  0  0  0  0  0
  -44.6393   17.7276  128.4713 C   0  0  0  0  0  0  0  0  0  0  0  0
  -43.3767   17.7669  129.2490 C   0  0  0  0  0  0  0  0  0  0  0  0
  -43.4229   16.8942  130.4884 C   0  0  0  0  0  0  0  0  0  0  0  0
  -42.7242   15.5893  130.3225 C   0  0  0  0  0  0  0  0  0  0  0  0
  -41.2335   15.6696  130.5319 C   0  0  0  0  0  0  0  0  0  0  0  0
  -40.8716   14.5826  131.5452 C   0  0  0  0  0  0  0  0  0  0  0  0
  -41.7483   20.4633  116.2471 C   0  0  2  0  0  0  0  0  0  0  0  0
  -40.7294   19.4390  114.3634 C   0  0  0  0  0  0  0  0  0  0  0  0
  -39.8853   18.1874  114.4266 C   0  0  0  0  0  0  0  0  0  0  0  0
  -40.3094   17.2937  115.5716 C   0  0  0  0  0  0  0  0  0  0  0  0
  -39.3738   16.0732  115.5572 C   0  0  0  0  0  0  0  0  0  0  0  0
  -39.8645   15.1700  116.6393 C   0  0  0  0  0  0  0  0  0  0  0  0
  -39.2824   13.8501  116.7822 C   0  0  0  0  0  0  0  0  0  0  0  0
  -37.9668   13.4181  116.3435 C   0  0  0  0  0  0  0  0  0  0  0  0
  -37.4597   12.0701  116.6028 C   0  0  0  0  0  0  0  0  0  0  0  0
  -36.3286   11.6349  115.7498 C   0  0  0  0  0  0  0  0  0  0  0  0
  -35.0549   11.4158  116.5874 C   0  0  0  0  0  0  0  0  0  0  0  0
  -34.0519   10.8255  115.6672 C   0  0  0  0  0  0  0  0  0  0  0  0
  -32.7492   10.4548  116.3230 C   0  0  0  0  0  0  0  0  0  0  0  0
  -31.5722   10.5898  115.3988 C   0  0  0  0  0  0  0  0  0  0  0  0
  -30.2647   10.2397  116.0576 C   0  0  0  0  0  0  0  0  0  0  0  0
  -29.0924   10.3192  115.1173 C   0  0  0  0  0  0  0  0  0  0  0  0
  -29.2874    9.2500  114.0631 C   0  0  0  0  0  0  0  0  0  0  0  0
  -27.9545    8.6439  113.6184 C   0  0  0  0  0  0  0  0  0  0  0  0
  -27.5373    9.1320  112.2719 C   0  0  0  0  0  0  0  0  0  0  0  0
  -28.7303    9.3494  111.3974 C   0  0  0  0  0  0  0  0  0  0  0  0
  -28.7080    8.5068  110.1353 C   0  0  0  0  0  0  0  0  0  0  0  0
  -29.5058    9.2798  109.0981 C   0  0  0  0  0  0  0  0  0  0  0  0
  -30.9014    8.7347  108.9176 C   0  0  0  0  0  0  0  0  0  0  0  0
  -31.6473    9.4522  107.8234 C   0  0  0  0  0  0  0  0  0  0  0  0
  -31.7924    8.5799  106.5944 C   0  0  0  0  0  0  0  0  0  0  0  0
  -42.1007   21.8521  115.6888 C   0  0  0  0  0  0  0  0  0  0  0  0
  -43.4175   26.3939  116.8170 C   0  0  0  0  0  0  0  0  0  0  0  0
  -44.6269   26.2519  117.6778 C   0  0  0  0  0  0  0  0  0  0  0  0
  -45.4475   27.1405  119.6682 C   0  0  0  0  0  0  0  0  0  0  0  0
  -43.9531   28.4369  118.4275 C   0  0  0  0  0  0  0  0  0  0  0  0
  -46.1516   28.1053  117.6597 C   0  0  0  0  0  0  0  0  0  0  0  0
  1 26  1  0
  1 27  1  0
  2  3  1  6
  2  5  1  0
  2 26  1  0
  4  9  1  0
  4 11  1  0
  4 13  1  0
  4 15  1  0
  5  8  1  0
  6 53  1  0
  6 54  1  1
  6 55  1  0
  6 56  1  0
  7 27  1  0
  8 10  1  0
  9 51  1  0
 10 12  1  0
 12 14  1  0
 13 52  1  0
 14 16  1  0
 16 17  1  0
 17 18  1  0
 18 19  1  0
 19 20  1  0
 20 21  1  0
 21 22  1  0
 22 23  1  0
 23 24  1  0
 24 25  1  0
 26 51  1  6
 27 28  1  0
 28 29  1  0
 29 30  1  0
 30 31  1  0
 31 32  1  0
 32 33  1  0
 33 34  1  0
 34 35  1  0
 35 36  1  0
 36 37  1  0
 37 38  1  0
 38 39  1  0
 39 40  1  0
 40 41  1  0
 41 42  1  0
 42 43  1  0
 43 44  1  0
 44 45  1  0
 45 46  1  0
 46 47  1  0
 47 48  1  0
 48 49  1  0
 49 50  1  0
 52 53  1  0
M  CHG  2   6   1  11  -1
M  END
$$$$
