
     RDKit          3D

 56 55  0  0  0  0  0  0  0  0999 V2000
  -34.9271   63.2191   65.4919 N   0  0  0  0  0  0  0  0  0  0  0  0
  -32.7994   64.1746   64.6593 C   0  0  1  0  0  0  0  0  0  0  0  0
  -33.1428   65.2744   65.3725 O   0  0  0  0  0  0  0  0  0  0  0  0
  -35.5336   65.6593   64.0271 P   0  0  0  0  0  5  0  0  0  0  0  0
  -31.4933   63.5168   64.9300 C   0  0  0  0  0  0  0  0  0  0  0  0
  -39.0991   66.0448   62.9260 N   0  0  1  0  0  4  0  0  0  0  0  0
  -35.1080   60.8979   65.0149 O   0  0  0  0  0  0  0  0  0  0  0  0
  -31.6022   62.0237   64.9524 C   0  0  0  0  0  0  0  0  0  0  0  0
  -35.7727   64.1649   63.3658 O   0  0  0  0  0  0  0  0  0  0  0  0
  -30.3612   61.2986   65.3509 C   0  0  0  0  0  0  0  0  0  0  0  0
  -34.1279   65.9631   64.8688 O   0  0  0  0  0  1  0  0  0  0  0  0
  -29.3972   61.1493   64.1597 C   0  0  0  0  0  0  0  0  0  0  0  0
  -36.7511   66.7653   64.0129 O   0  0  0  0  0  0  0  0  0  0  0  0
  -29.1568   59.6752   63.9980 C   0  0  0  0  0  0  0  0  0  0  0  0
  -34.9035   66.1715   62.7362 O   0  0  0  0  0  0  0  0  0  0  0  0
  -30.0098   59.0214   62.9279 C   0  0  0  0  0  0  0  0  0  0  0  0
  -29.2060   58.3433   61.8784 C   0  0  0  0  0  0  0  0  0  0  0  0
  -30.0039   57.6156   60.8825 C   0  0  0  0  0  0  0  0  0  0  0  0
  -29.5173   56.9244   59.7116 C   0  0  0  0  0  0  0  0  0  0  0  0
  -30.3360   56.4540   58.5832 C   0  0  0  0  0  0  0  0  0  0  0  0
  -31.1737   55.2743   58.9105 C   0  0  0  0  0  0  0  0  0  0  0  0
  -32.2162   54.9815   57.8486 C   0  0  0  0  0  0  0  0  0  0  0  0
  -32.5972   53.5437   57.7707 C   0  0  0  0  0  0  0  0  0  0  0  0
  -32.6018   52.8452   59.1067 C   0  0  0  0  0  0  0  0  0  0  0  0
  -33.1114   51.4245   58.8594 C   0  0  0  0  0  0  0  0  0  0  0  0
  -33.9432   63.1751   64.4556 C   0  0  2  0  0  0  0  0  0  0  0  0
  -35.6675   62.0185   65.6066 C   0  0  0  0  0  0  0  0  0  0  0  0
  -37.1214   62.0995   65.2032 C   0  0  0  0  0  0  0  0  0  0  0  0
  -37.6473   60.7506   64.7633 C   0  0  0  0  0  0  0  0  0  0  0  0
  -38.3069   60.1046   65.9932 C   0  0  0  0  0  0  0  0  0  0  0  0
  -38.9368   58.8433   65.5033 C   0  0  0  0  0  0  0  0  0  0  0  0
  -40.3579   58.6353   65.7000 C   0  0  0  0  0  0  0  0  0  0  0  0
  -41.4285   59.5815   65.4389 C   0  0  0  0  0  0  0  0  0  0  0  0
  -42.8169   59.3153   65.8174 C   0  0  0  0  0  0  0  0  0  0  0  0
  -43.1205   57.9162   66.2000 C   0  0  0  0  0  0  0  0  0  0  0  0
  -44.5940   57.5706   65.9143 C   0  0  0  0  0  0  0  0  0  0  0  0
  -44.6453   57.1155   64.5031 C   0  0  0  0  0  0  0  0  0  0  0  0
  -45.9787   57.3138   63.8344 C   0  0  0  0  0  0  0  0  0  0  0  0
  -45.8533   57.7519   62.4025 C   0  0  0  0  0  0  0  0  0  0  0  0
  -47.1720   57.7721   61.6767 C   0  0  0  0  0  0  0  0  0  0  0  0
  -47.0384   58.1437   60.2245 C   0  0  0  0  0  0  0  0  0  0  0  0
  -46.8018   59.6378   60.1618 C   0  0  0  0  0  0  0  0  0  0  0  0
  -47.9946   60.4232   60.7114 C   0  0  0  0  0  0  0  0  0  0  0  0
  -49.1111   60.5110   59.7261 C   0  0  0  0  0  0  0  0  0  0  0  0
  -50.3179   61.1341   60.3512 C   0  0  0  0  0  0  0  0  0  0  0  0
  -50.5939   62.5391   59.8479 C   0  0  0  0  0  0  0  0  0  0  0  0
  -50.8049   63.3962   61.0850 C   0  0  0  0  0  0  0  0  0  0  0  0
  -50.7155   64.8730   60.7879 C   0  0  0  0  0  0  0  0  0  0  0  0
  -50.8298   65.7053   62.0380 C   0  0  0  0  0  0  0  0  0  0  0  0
  -50.4955   67.1563   61.7640 C   0  0  0  0  0  0  0  0  0  0  0  0
  -34.5628   63.5750   63.1063 C   0  0  0  0  0  0  0  0  0  0  0  0
  -37.0214   67.3457   62.8080 C   0  0  0  0  0  0  0  0  0  0  0  0
  -38.0737   66.5947   62.0647 C   0  0  0  0  0  0  0  0  0  0  0  0
  -39.6688   64.9058   62.2303 C   0  0  0  0  0  0  0  0  0  0  0  0
  -38.6062   65.6005   64.1902 C   0  0  0  0  0  0  0  0  0  0  0  0
  -40.1814   66.9964   63.1400 C   0  0  0  0  0  0  0  0  0  0  0  0
  1 26  1  0
  1 27  1  0
  2  3  1  1
  2  5  1  0
  2 26  1  0
  4  9  1  0
  4 11  1  0
  4 13  1  0
  4 15  1  0
  5  8  1  0
  6 53  1  0
  6 54  1  6
  6 55  1  0
  6 56  1  0
  7 27  1  0
  8 10  1  0
  9 51  1  0
 10 12  1  0
 12 14  1  0
 13 52  1  0
 14 16  1  0
 16 17  1  0
 17 18  1  0
 18 19  1  0
 19 20  1  0
 20 21  1  0
 21 22  1  0
 22 23  1  0
 23 24  1  0
 24 25  1  0
 26 51  1  6
 27 28  1  0
 28 29  1  0
 29 30  1  0
 30 31  1  0
 31 32  1  0
 32 33  1  0
 33 34  1  0
 34 35  1  0
 35 36  1  0
 36 37  1  0
 37 38  1  0
 38 39  1  0
 39 40  1  0
 40 41  1  0
 41 42  1  0
 42 43  1  0
 43 44  1  0
 44 45  1  0
 45 46  1  0
 46 47  1  0
 47 48  1  0
 48 49  1  0
 49 50  1  0
 52 53  1  0
M  CHG  2   6   1  11  -1
M  END
$$$$
