
     RDKit          3D

 56 55  0  0  0  0  0  0  0  0999 V2000
  -34.2713   65.0410   62.8357 N   0  0  0  0  0  0  0  0  0  0  0  0
  -32.7641   65.6978   60.9836 C   0  0  1  0  0  0  0  0  0  0  0  0
  -33.4698   66.1869   59.9354 O   0  0  0  0  0  0  0  0  0  0  0  0
  -31.1635   65.4410   65.4492 P   0  0  0  0  0  5  0  0  0  0  0  0
  -31.2796   65.7849   60.9588 C   0  0  0  0  0  0  0  0  0  0  0  0
  -27.7214   65.1292   62.3612 N   0  0  1  0  0  4  0  0  0  0  0  0
  -35.9988   66.5721   63.4007 O   0  0  0  0  0  0  0  0  0  0  0  0
  -30.6296   64.6105   61.6220 C   0  0  0  0  0  0  0  0  0  0  0  0
  -32.2738   65.1826   64.2542 O   0  0  0  0  0  0  0  0  0  0  0  0
  -29.1431   64.6761   61.7236 C   0  0  0  0  0  0  0  0  0  0  0  0
  -31.6083   66.3058   66.8024 O   0  0  0  0  0  1  0  0  0  0  0  0
  -28.6079   63.6417   62.7306 C   0  0  0  0  0  0  0  0  0  0  0  0
  -29.5930   65.0115   65.2147 O   0  0  0  0  0  0  0  0  0  0  0  0
  -29.4361   62.4030   62.5382 C   0  0  0  0  0  0  0  0  0  0  0  0
  -31.5364   64.1291   66.1317 O   0  0  0  0  0  0  0  0  0  0  0  0
  -29.2398   61.3524   63.6143 C   0  0  0  0  0  0  0  0  0  0  0  0
  -29.5246   59.9739   63.1389 C   0  0  0  0  0  0  0  0  0  0  0  0
  -30.4086   59.2011   64.0216 C   0  0  0  0  0  0  0  0  0  0  0  0
  -31.0997   57.9732   63.7055 C   0  0  0  0  0  0  0  0  0  0  0  0
  -31.2299   56.8030   64.5879 C   0  0  0  0  0  0  0  0  0  0  0  0
  -31.6379   55.5670   63.8764 C   0  0  0  0  0  0  0  0  0  0  0  0
  -31.9356   54.4174   64.8196 C   0  0  0  0  0  0  0  0  0  0  0  0
  -32.3681   53.1740   64.1229 C   0  0  0  0  0  0  0  0  0  0  0  0
  -31.5650   51.9562   64.5031 C   0  0  0  0  0  0  0  0  0  0  0  0
  -31.8316   51.6981   65.9868 C   0  0  0  0  0  0  0  0  0  0  0  0
  -33.3613   66.0331   62.3546 C   0  0  2  0  0  0  0  0  0  0  0  0
  -35.6278   65.4264   62.7163 C   0  0  0  0  0  0  0  0  0  0  0  0
  -36.6470   64.3471   62.9982 C   0  0  0  0  0  0  0  0  0  0  0  0
  -37.4458   64.0061   61.7592 C   0  0  0  0  0  0  0  0  0  0  0  0
  -38.6549   63.1753   62.2206 C   0  0  0  0  0  0  0  0  0  0  0  0
  -39.3259   62.7039   60.9736 C   0  0  0  0  0  0  0  0  0  0  0  0
  -40.7158   63.0443   60.7418 C   0  0  0  0  0  0  0  0  0  0  0  0
  -41.8137   62.9467   61.6879 C   0  0  0  0  0  0  0  0  0  0  0  0
  -42.8080   61.8749   61.6239 C   0  0  0  0  0  0  0  0  0  0  0  0
  -43.8966   61.9489   62.6268 C   0  0  0  0  0  0  0  0  0  0  0  0
  -45.2552   61.5873   61.9980 C   0  0  0  0  0  0  0  0  0  0  0  0
  -45.3369   60.1060   62.0148 C   0  0  0  0  0  0  0  0  0  0  0  0
  -45.6999   59.4887   60.6912 C   0  0  0  0  0  0  0  0  0  0  0  0
  -46.4103   58.1727   60.8371 C   0  0  0  0  0  0  0  0  0  0  0  0
  -47.7349   58.1377   60.1229 C   0  0  0  0  0  0  0  0  0  0  0  0
  -48.9046   58.3690   61.0412 C   0  0  0  0  0  0  0  0  0  0  0  0
  -50.1516   57.9350   60.3003 C   0  0  0  0  0  0  0  0  0  0  0  0
  -50.7836   56.6939   60.9344 C   0  0  0  0  0  0  0  0  0  0  0  0
  -52.2061   56.9234   61.3206 C   0  0  0  0  0  0  0  0  0  0  0  0
  -52.8036   55.6790   61.8947 C   0  0  0  0  0  0  0  0  0  0  0  0
  -54.2419   55.8588   62.3445 C   0  0  0  0  0  0  0  0  0  0  0  0
  -54.7627   54.4660   62.6585 C   0  0  0  0  0  0  0  0  0  0  0  0
  -56.2517   54.3437   62.4465 C   0  0  0  0  0  0  0  0  0  0  0  0
  -57.0252   54.6598   63.6996 C   0  0  0  0  0  0  0  0  0  0  0  0
  -58.5179   54.5838   63.4574 C   0  0  0  0  0  0  0  0  0  0  0  0
  -32.1418   66.1428   63.2848 C   0  0  0  0  0  0  0  0  0  0  0  0
  -28.8565   65.8389   64.4181 C   0  0  0  0  0  0  0  0  0  0  0  0
  -28.9857   65.4683   62.9793 C   0  0  0  0  0  0  0  0  0  0  0  0
  -27.5241   63.7049   62.5572 C   0  0  0  0  0  0  0  0  0  0  0  0
  -27.6784   65.4017   60.9603 C   0  0  0  0  0  0  0  0  0  0  0  0
  -26.6098   65.8058   63.0165 C   0  0  0  0  0  0  0  0  0  0  0  0
  1 26  1  0
  1 27  1  0
  2  3  1  6
  2  5  1  0
  2 26  1  0
  4  9  1  0
  4 11  1  0
  4 13  1  0
  4 15  1  0
  5  8  1  0
  6 53  1  0
  6 54  1  6
  6 55  1  0
  6 56  1  0
  7 27  1  0
  8 10  1  0
  9 51  1  0
 10 12  1  0
 12 14  1  0
 13 52  1  0
 14 16  1  0
 16 17  1  0
 17 18  1  0
 18 19  1  0
 19 20  1  0
 20 21  1  0
 21 22  1  0
 22 23  1  0
 23 24  1  0
 24 25  1  0
 26 51  1  1
 27 28  1  0
 28 29  1  0
 29 30  1  0
 30 31  1  0
 31 32  1  0
 32 33  1  0
 33 34  1  0
 34 35  1  0
 35 36  1  0
 36 37  1  0
 37 38  1  0
 38 39  1  0
 39 40  1  0
 40 41  1  0
 41 42  1  0
 42 43  1  0
 43 44  1  0
 44 45  1  0
 45 46  1  0
 46 47  1  0
 47 48  1  0
 48 49  1  0
 49 50  1  0
 52 53  1  0
M  CHG  2   6   1  11  -1
M  END
$$$$
