
     RDKit          3D

 56 55  0  0  0  0  0  0  0  0999 V2000
  -38.9007   65.4985   62.1602 N   0  0  0  0  0  0  0  0  0  0  0  0
  -40.6908   64.1192   63.1733 C   0  0  1  0  0  0  0  0  0  0  0  0
  -40.0198   64.4142   64.3130 O   0  0  0  0  0  0  0  0  0  0  0  0
  -37.8064   62.8777   59.5836 P   0  0  0  0  0  5  0  0  0  0  0  0
  -42.1767   64.1823   63.1729 C   0  0  0  0  0  0  0  0  0  0  0  0
  -39.8441   59.8636   57.8393 N   0  0  1  0  0  4  0  0  0  0  0  0
  -37.3137   66.0406   63.8441 O   0  0  0  0  0  0  0  0  0  0  0  0
  -42.8038   62.8241   63.2317 C   0  0  0  0  0  0  0  0  0  0  0  0
  -39.0249   63.9310   59.9491 O   0  0  0  0  0  0  0  0  0  0  0  0
  -44.2641   62.7811   62.9314 C   0  0  0  0  0  0  0  0  0  0  0  0
  -36.2640   63.1944   60.1290 O   0  0  0  0  0  1  0  0  0  0  0  0
  -44.8204   61.3528   63.0773 C   0  0  0  0  0  0  0  0  0  0  0  0
  -38.0817   61.6380   58.5382 O   0  0  0  0  0  0  0  0  0  0  0  0
  -46.3066   61.4611   62.8864 C   0  0  0  0  0  0  0  0  0  0  0  0
  -38.1036   62.0437   60.8253 O   0  0  0  0  0  0  0  0  0  0  0  0
  -47.0565   60.1614   63.1076 C   0  0  0  0  0  0  0  0  0  0  0  0
  -48.5248   60.3003   62.9276 C   0  0  0  0  0  0  0  0  0  0  0  0
  -49.2530   59.0249   62.8979 C   0  0  0  0  0  0  0  0  0  0  0  0
  -49.1983   57.9666   63.8790 C   0  0  0  0  0  0  0  0  0  0  0  0
  -49.9174   56.6849   63.8085 C   0  0  0  0  0  0  0  0  0  0  0  0
  -51.0658   56.7008   62.8698 C   0  0  0  0  0  0  0  0  0  0  0  0
  -52.2365   55.8705   63.3598 C   0  0  0  0  0  0  0  0  0  0  0  0
  -53.4150   55.9101   62.4499 C   0  0  0  0  0  0  0  0  0  0  0  0
  -54.1085   57.2482   62.4152 C   0  0  0  0  0  0  0  0  0  0  0  0
  -55.0207   57.2401   61.1876 C   0  0  0  0  0  0  0  0  0  0  0  0
  -40.0654   64.7098   61.9049 C   0  0  2  0  0  0  0  0  0  0  0  0
  -38.2246   65.1237   63.3457 C   0  0  0  0  0  0  0  0  0  0  0  0
  -37.5743   63.7599   63.3306 C   0  0  0  0  0  0  0  0  0  0  0  0
  -36.0880   63.8550   63.5981 C   0  0  0  0  0  0  0  0  0  0  0  0
  -35.5739   62.4176   63.7845 C   0  0  0  0  0  0  0  0  0  0  0  0
  -34.0968   62.5328   63.9653 C   0  0  0  0  0  0  0  0  0  0  0  0
  -33.2839   61.3325   63.9578 C   0  0  0  0  0  0  0  0  0  0  0  0
  -31.8453   61.2449   64.1384 C   0  0  0  0  0  0  0  0  0  0  0  0
  -31.0167   60.3119   63.3737 C   0  0  0  0  0  0  0  0  0  0  0  0
  -30.6855   59.0394   64.0574 C   0  0  0  0  0  0  0  0  0  0  0  0
  -29.7235   58.1879   63.2079 C   0  0  0  0  0  0  0  0  0  0  0  0
  -29.2965   57.0606   64.0728 C   0  0  0  0  0  0  0  0  0  0  0  0
  -30.4243   56.1970   64.5699 C   0  0  0  0  0  0  0  0  0  0  0  0
  -29.9742   55.1681   65.5682 C   0  0  0  0  0  0  0  0  0  0  0  0
  -28.5738   54.6772   65.3153 C   0  0  0  0  0  0  0  0  0  0  0  0
  -28.5111   53.2016   65.0265 C   0  0  0  0  0  0  0  0  0  0  0  0
  -28.3271   52.4909   66.3507 C   0  0  0  0  0  0  0  0  0  0  0  0
  -29.2299   51.2604   66.4628 C   0  0  0  0  0  0  0  0  0  0  0  0
  -28.5285   50.1053   67.0944 C   0  0  0  0  0  0  0  0  0  0  0  0
  -28.8077   48.8439   66.3419 C   0  0  0  0  0  0  0  0  0  0  0  0
  -27.7101   47.8059   66.4869 C   0  0  0  0  0  0  0  0  0  0  0  0
  -28.3559   46.4641   66.1828 C   0  0  0  0  0  0  0  0  0  0  0  0
  -27.9436   45.3892   67.1584 C   0  0  0  0  0  0  0  0  0  0  0  0
  -28.5691   44.0598   66.8266 C   0  0  0  0  0  0  0  0  0  0  0  0
  -27.9422   42.9417   67.6324 C   0  0  0  0  0  0  0  0  0  0  0  0
  -39.7091   63.4829   61.0492 C   0  0  0  0  0  0  0  0  0  0  0  0
  -37.7355   60.3935   58.9776 C   0  0  0  0  0  0  0  0  0  0  0  0
  -38.8507   59.4205   58.7945 C   0  0  0  0  0  0  0  0  0  0  0  0
  -40.8168   58.7938   57.7146 C   0  0  0  0  0  0  0  0  0  0  0  0
  -40.5292   61.0518   58.2361 C   0  0  0  0  0  0  0  0  0  0  0  0
  -39.2614   60.0633   56.5189 C   0  0  0  0  0  0  0  0  0  0  0  0
  1 26  1  0
  1 27  1  0
  2  3  1  1
  2  5  1  0
  2 26  1  0
  4  9  1  0
  4 11  1  0
  4 13  1  0
  4 15  1  0
  5  8  1  0
  6 53  1  0
  6 54  1  6
  6 55  1  0
  6 56  1  0
  7 27  1  0
  8 10  1  0
  9 51  1  0
 10 12  1  0
 12 14  1  0
 13 52  1  0
 14 16  1  0
 16 17  1  0
 17 18  1  0
 18 19  1  0
 19 20  1  0
 20 21  1  0
 21 22  1  0
 22 23  1  0
 23 24  1  0
 24 25  1  0
 26 51  1  6
 27 28  1  0
 28 29  1  0
 29 30  1  0
 30 31  1  0
 31 32  1  0
 32 33  1  0
 33 34  1  0
 34 35  1  0
 35 36  1  0
 36 37  1  0
 37 38  1  0
 38 39  1  0
 39 40  1  0
 40 41  1  0
 41 42  1  0
 42 43  1  0
 43 44  1  0
 44 45  1  0
 45 46  1  0
 46 47  1  0
 47 48  1  0
 48 49  1  0
 49 50  1  0
 52 53  1  0
M  CHG  2   6   1  11  -1
M  END
$$$$
