
     RDKit          3D

 23 23  0  0  0  0  0  0  0  0999 V2000
  -31.9932   53.9369   62.8378 C   0  0  0  0  0  0  0  0  0  0  0  0
  -35.4813   56.4385   60.3677 C   0  0  0  0  0  0  0  0  0  0  0  0
  -37.0196   58.3692   61.2227 C   0  0  0  0  0  0  0  0  0  0  0  0
  -34.3855   56.1724   61.2829 C   0  0  0  0  0  0  0  0  0  0  0  0
  -37.3433   59.7912   61.0426 C   0  0  0  0  0  0  0  0  0  0  0  0
  -36.7906   65.8680   62.2323 C   0  0  0  0  0  0  0  0  0  0  0  0
  -36.6092   67.0424   63.1091 C   0  0  0  0  0  0  0  0  0  0  0  0
  -38.2106   65.4805   61.9495 C   0  0  0  0  0  0  0  0  0  0  0  0
  -33.0737   54.9647   63.0110 C   0  0  0  0  0  0  0  0  0  0  0  0
  -36.2683   57.6348   60.2205 C   0  0  0  0  0  0  0  0  0  0  0  0
  -34.0691   54.8393   61.8282 C   0  0  0  0  0  0  0  0  0  0  0  0
  -37.4883   60.5132   62.3947 C   0  0  0  0  0  0  0  0  0  0  0  0
  -38.5054   61.6193   62.3021 C   0  0  0  0  0  0  0  0  0  0  0  0
  -39.8753   61.1209   62.6228 C   0  0  0  0  0  0  0  0  0  0  0  0
  -40.7289   62.1514   63.3146 C   0  0  0  0  0  0  0  0  0  0  0  0
  -40.0909   62.7439   64.5518 C   0  0  0  0  0  0  0  0  0  0  0  0
  -38.7663   63.3178   64.2039 C   0  0  0  0  0  0  0  0  0  0  0  0
  -38.6497   64.7970   64.3179 C   0  0  0  0  0  0  0  0  0  0  0  0
  -37.7413   67.4569   63.9552 C   0  0  0  0  0  0  0  0  0  0  0  0
  -39.1057   67.0573   63.5294 C   0  0  0  0  0  0  0  0  0  0  0  0
  -39.1003   65.5905   63.1614 C   0  0  1  0  0  0  0  0  0  0  0  0
  -37.7642   68.8756   64.0273 O   0  0  0  0  0  0  0  0  0  0  0  0
  -40.0002   67.2988   64.5668 O   0  0  0  0  0  0  0  0  0  0  0  0
  1  9  1  0
  2  4  1  0
  2 10  1  0
  3  5  1  0
  3 10  1  0
  4 11  1  0
  5 12  1  0
  6  7  1  0
  6  8  1  0
  7 19  1  0
  8 21  1  0
  9 11  1  0
 12 13  1  0
 13 14  1  0
 14 15  1  0
 15 16  1  0
 16 17  1  0
 17 18  1  0
 21 18  1  1
 19 20  1  0
 19 22  1  0
 20 21  1  0
 20 23  1  0
M  END
$$$$
