
     RDKit          3D

 23 23  0  0  0  0  0  0  0  0999 V2000
  -50.6243   58.6766   61.6066 C   0  0  0  0  0  0  0  0  0  0  0  0
  -45.6302   57.9179   61.7843 C   0  0  0  0  0  0  0  0  0  0  0  0
  -43.0250   57.7417   61.7013 C   0  0  0  0  0  0  0  0  0  0  0  0
  -46.8412   58.7176   61.7307 C   0  0  0  0  0  0  0  0  0  0  0  0
  -41.7959   58.4856   61.3923 C   0  0  0  0  0  0  0  0  0  0  0  0
  -34.6278   63.4636   60.9702 C   0  0  0  0  0  0  0  0  0  0  0  0
  -33.4112   63.5140   61.8057 C   0  0  0  0  0  0  0  0  0  0  0  0
  -35.9107   63.8008   61.6681 C   0  0  0  0  0  0  0  0  0  0  0  0
  -49.2549   59.2914   61.6266 C   0  0  0  0  0  0  0  0  0  0  0  0
  -44.3239   58.2157   61.2579 C   0  0  0  0  0  0  0  0  0  0  0  0
  -48.2039   58.1542   61.7151 C   0  0  0  0  0  0  0  0  0  0  0  0
  -40.5447   57.7434   61.8965 C   0  0  0  0  0  0  0  0  0  0  0  0
  -39.3234   58.6158   61.7779 C   0  0  0  0  0  0  0  0  0  0  0  0
  -38.7183   58.8820   63.1161 C   0  0  0  0  0  0  0  0  0  0  0  0
  -38.0808   60.2433   63.2128 C   0  0  0  0  0  0  0  0  0  0  0  0
  -37.4929   60.5485   64.5730 C   0  0  0  0  0  0  0  0  0  0  0  0
  -36.1219   61.0957   64.4126 C   0  0  0  0  0  0  0  0  0  0  0  0
  -35.8345   61.7551   63.1097 C   0  0  0  0  0  0  0  0  0  0  0  0
  -33.5723   63.4548   63.2686 C   0  0  0  0  0  0  0  0  0  0  0  0
  -34.8770   63.8742   63.8383 C   0  0  0  0  0  0  0  0  0  0  0  0
  -35.9930   63.2187   63.0561 C   0  0  1  0  0  0  0  0  0  0  0  0
  -32.6031   64.3010   63.8711 O   0  0  0  0  0  0  0  0  0  0  0  0
  -34.9342   63.5037   65.1777 O   0  0  0  0  0  0  0  0  0  0  0  0
  1  9  1  0
  2  4  1  0
  2 10  1  0
  3  5  1  0
  3 10  1  0
  4 11  1  0
  5 12  1  0
  6  7  1  0
  6  8  1  0
  7 19  1  0
  8 21  1  0
  9 11  1  0
 12 13  1  0
 13 14  1  0
 14 15  1  0
 15 16  1  0
 16 17  1  0
 17 18  1  0
 21 18  1  6
 19 20  1  0
 19 22  1  0
 20 21  1  0
 20 23  1  0
M  END
$$$$
