
     RDKit          3D

 23 23  0  0  0  0  0  0  0  0999 V2000
  -48.4727   56.3395   59.3993 C   0  0  0  0  0  0  0  0  0  0  0  0
  -45.8694   58.2897   63.0720 C   0  0  0  0  0  0  0  0  0  0  0  0
  -44.7197   60.5756   62.5449 C   0  0  0  0  0  0  0  0  0  0  0  0
  -46.2467   57.1368   62.2735 C   0  0  0  0  0  0  0  0  0  0  0  0
  -43.4646   61.3397   62.5306 C   0  0  0  0  0  0  0  0  0  0  0  0
  -33.0085   64.0153   61.6093 C   0  0  0  0  0  0  0  0  0  0  0  0
  -31.9923   63.0557   62.0859 C   0  0  0  0  0  0  0  0  0  0  0  0
  -34.0723   64.3816   62.5996 C   0  0  0  0  0  0  0  0  0  0  0  0
  -47.4004   57.1444   60.0747 C   0  0  0  0  0  0  0  0  0  0  0  0
  -44.7425   59.1714   62.9139 C   0  0  0  0  0  0  0  0  0  0  0  0
  -47.5545   56.9834   61.6096 C   0  0  0  0  0  0  0  0  0  0  0  0
  -42.2760   60.4826   63.0030 C   0  0  0  0  0  0  0  0  0  0  0  0
  -41.0576   61.3380   63.2272 C   0  0  0  0  0  0  0  0  0  0  0  0
  -39.9702   60.9910   62.2654 C   0  0  0  0  0  0  0  0  0  0  0  0
  -38.6408   60.7661   62.9370 C   0  0  0  0  0  0  0  0  0  0  0  0
  -37.4848   61.4641   62.2549 C   0  0  0  0  0  0  0  0  0  0  0  0
  -36.2774   61.3871   63.1158 C   0  0  0  0  0  0  0  0  0  0  0  0
  -35.0676   62.0841   62.6009 C   0  0  0  0  0  0  0  0  0  0  0  0
  -32.3158   62.2313   63.2628 C   0  0  0  0  0  0  0  0  0  0  0  0
  -33.3490   62.7386   64.1998 C   0  0  0  0  0  0  0  0  0  0  0  0
  -34.5509   63.2029   63.4081 C   0  0  1  0  0  0  0  0  0  0  0  0
  -31.1406   62.0659   64.0438 O   0  0  0  0  0  0  0  0  0  0  0  0
  -33.7058   61.7252   65.0832 O   0  0  0  0  0  0  0  0  0  0  0  0
  1  9  1  0
  2  4  1  0
  2 10  1  0
  3  5  1  0
  3 10  1  0
  4 11  1  0
  5 12  1  0
  6  7  1  0
  6  8  1  0
  7 19  1  0
  8 21  1  0
  9 11  1  0
 12 13  1  0
 13 14  1  0
 14 15  1  0
 15 16  1  0
 16 17  1  0
 17 18  1  0
 21 18  1  6
 19 20  1  0
 19 22  1  0
 20 21  1  0
 20 23  1  0
M  END
$$$$
