
     RDKit          3D

 23 23  0  0  0  0  0  0  0  0999 V2000
  -50.7391   57.9792   59.1699 C   0  0  0  0  0  0  0  0  0  0  0  0
  -46.8068   57.8496   62.1784 C   0  0  0  0  0  0  0  0  0  0  0  0
  -44.8985   59.2328   63.3054 C   0  0  0  0  0  0  0  0  0  0  0  0
  -48.2491   57.9058   62.0187 C   0  0  0  0  0  0  0  0  0  0  0  0
  -44.1327   59.4879   64.5333 C   0  0  0  0  0  0  0  0  0  0  0  0
  -34.5443   60.9837   62.4814 C   0  0  0  0  0  0  0  0  0  0  0  0
  -33.9362   62.3249   62.3717 C   0  0  0  0  0  0  0  0  0  0  0  0
  -36.0375   60.9346   62.3610 C   0  0  0  0  0  0  0  0  0  0  0  0
  -50.0113   57.3944   60.3456 C   0  0  0  0  0  0  0  0  0  0  0  0
  -46.0005   58.2875   63.2876 C   0  0  0  0  0  0  0  0  0  0  0  0
  -48.9280   58.4036   60.8079 C   0  0  0  0  0  0  0  0  0  0  0  0
  -42.6165   59.3869   64.2847 C   0  0  0  0  0  0  0  0  0  0  0  0
  -41.8497   59.6455   65.5542 C   0  0  0  0  0  0  0  0  0  0  0  0
  -40.3816   59.4812   65.3409 C   0  0  0  0  0  0  0  0  0  0  0  0
  -39.5707   60.5956   65.9489 C   0  0  0  0  0  0  0  0  0  0  0  0
  -38.7507   61.3745   64.9441 C   0  0  0  0  0  0  0  0  0  0  0  0
  -37.3705   61.5566   65.4604 C   0  0  0  0  0  0  0  0  0  0  0  0
  -36.3977   62.1641   64.5122 C   0  0  0  0  0  0  0  0  0  0  0  0
  -34.8009   63.4975   62.5876 C   0  0  0  0  0  0  0  0  0  0  0  0
  -36.2602   63.3292   62.3762 C   0  0  0  0  0  0  0  0  0  0  0  0
  -36.7206   62.0711   63.0779 C   0  0  1  0  0  0  0  0  0  0  0  0
  -34.4030   64.5306   61.6971 O   0  0  0  0  0  0  0  0  0  0  0  0
  -36.9286   64.4417   62.8764 O   0  0  0  0  0  0  0  0  0  0  0  0
  1  9  1  0
  2  4  1  0
  2 10  1  0
  3  5  1  0
  3 10  1  0
  4 11  1  0
  5 12  1  0
  6  7  1  0
  6  8  1  0
  7 19  1  0
  8 21  1  0
  9 11  1  0
 12 13  1  0
 13 14  1  0
 14 15  1  0
 15 16  1  0
 16 17  1  0
 17 18  1  0
 21 18  1  1
 19 20  1  0
 19 22  1  0
 20 21  1  0
 20 23  1  0
M  END
$$$$
