
     RDKit          3D

 35 34  0  0  0  0  0  0  0  0999 V2000
  -36.1904   64.4572   62.2987 N   0  0  2  0  0  4  0  0  0  0  0  0
  -32.6203   62.8366   64.3576 C   0  0  1  0  0  0  0  0  0  0  0  0
  -31.4255   63.4996   64.6148 O   0  0  0  0  0  0  0  0  0  0  0  0
  -32.9522   66.2173   63.3422 P   0  0  0  0  0  5  0  0  0  0  0  0
  -33.4962   63.6837   63.5053 C   0  0  0  0  0  0  0  0  0  0  0  0
  -33.6858   64.9563   64.0009 O   0  0  0  0  0  0  0  0  0  0  0  0
  -35.2360   66.6860   62.2470 C   0  0  0  0  0  0  0  0  0  0  0  0
  -31.6617   66.0332   62.2914 O   0  0  0  0  0  1  0  0  0  0  0  0
  -35.9111   65.5790   61.4666 C   0  0  0  0  0  0  0  0  0  0  0  0
  -33.8930   66.4369   62.2028 O   0  0  0  0  0  0  0  0  0  0  0  0
  -36.9516   63.4755   61.5588 C   0  0  0  0  0  0  0  0  0  0  0  0
  -33.2902   67.7781   63.9067 O   0  0  0  0  0  0  0  0  0  0  0  0
  -37.0128   64.9548   63.4107 C   0  0  0  0  0  0  0  0  0  0  0  0
  -33.5529   60.7640   63.8333 O   0  0  0  0  0  0  0  0  0  0  0  0
  -34.9985   63.8281   62.8539 C   0  0  0  0  0  0  0  0  0  0  0  0
  -32.7773   59.7320   61.8840 O   0  0  0  0  0  0  0  0  0  0  0  0
  -32.3927   61.4942   63.6975 C   0  0  0  0  0  0  0  0  0  0  0  0
  -33.7837   59.8866   62.7773 C   0  0  0  0  0  0  0  0  0  0  0  0
  -34.1666   58.5315   63.3579 C   0  0  0  0  0  0  0  0  0  0  0  0
  -34.7078   58.7498   64.7482 C   0  0  0  0  0  0  0  0  0  0  0  0
  -36.0074   58.0995   64.9357 C   0  0  0  0  0  0  0  0  0  0  0  0
  -36.9815   58.7090   65.8342 C   0  0  0  0  0  0  0  0  0  0  0  0
  -38.3874   58.3514   65.7935 C   0  0  0  0  0  0  0  0  0  0  0  0
  -39.4989   59.1989   65.3906 C   0  0  0  0  0  0  0  0  0  0  0  0
  -40.8886   58.6662   65.6761 C   0  0  0  0  0  0  0  0  0  0  0  0
  -41.9445   59.5962   65.1201 C   0  0  0  0  0  0  0  0  0  0  0  0
  -43.1149   58.8846   64.5161 C   0  0  0  0  0  0  0  0  0  0  0  0
  -44.2111   58.5783   65.4672 C   0  0  0  0  0  0  0  0  0  0  0  0
  -45.3218   57.8111   64.7942 C   0  0  0  0  0  0  0  0  0  0  0  0
  -46.0641   58.5985   63.7623 C   0  0  0  0  0  0  0  0  0  0  0  0
  -46.7776   57.7081   62.7561 C   0  0  0  0  0  0  0  0  0  0  0  0
  -46.7561   58.2438   61.3818 C   0  0  0  0  0  0  0  0  0  0  0  0
  -47.4250   57.4134   60.3694 C   0  0  0  0  0  0  0  0  0  0  0  0
  -46.7657   56.2276   59.8076 C   0  0  0  0  0  0  0  0  0  0  0  0
  -47.1842   55.8632   58.4386 C   0  0  0  0  0  0  0  0  0  0  0  0
  1  9  1  0
  1 11  1  6
  1 13  1  0
  1 15  1  0
  2  3  1  6
  2  5  1  0
  2 17  1  0
  4  6  1  0
  4  8  1  0
  4 10  1  0
  4 12  1  0
  5  6  1  0
  7  9  1  0
  7 10  1  0
 14 17  1  0
 14 18  1  0
 16 18  1  0
 18 19  1  0
 19 20  1  0
 20 21  1  0
 21 22  1  0
 22 23  1  0
 23 24  1  0
 24 25  1  0
 25 26  1  0
 26 27  1  0
 27 28  1  0
 28 29  1  0
 29 30  1  0
 30 31  1  0
 31 32  1  0
 32 33  1  0
 33 34  1  0
 34 35  1  0
M  CHG  2   1   1   8  -1
M  END
$$$$
