
     RDKit          3D

 35 34  0  0  0  0  0  0  0  0999 V2000
  -31.3762   65.7475   65.7386 N   0  0  2  0  0  4  0  0  0  0  0  0
  -35.8227   64.8059   61.8847 C   0  0  1  0  0  0  0  0  0  0  0  0
  -36.9451   64.0040   62.0585 O   0  0  0  0  0  0  0  0  0  0  0  0
  -34.5890   68.0311   63.7131 P   0  0  0  0  0  5  0  0  0  0  0  0
  -35.8064   65.8831   62.9097 C   0  0  0  0  0  0  0  0  0  0  0  0
  -34.9161   66.8982   62.6306 O   0  0  0  0  0  0  0  0  0  0  0  0
  -32.5725   67.8111   65.3005 C   0  0  0  0  0  0  0  0  0  0  0  0
  -35.1768   67.9469   65.2786 O   0  0  0  0  0  1  0  0  0  0  0  0
  -31.2552   67.0700   65.2234 C   0  0  0  0  0  0  0  0  0  0  0  0
  -33.2534   67.5250   64.1507 O   0  0  0  0  0  0  0  0  0  0  0  0
  -31.0854   65.7448   67.1550 C   0  0  0  0  0  0  0  0  0  0  0  0
  -33.8652   69.4816   63.2219 O   0  0  0  0  0  0  0  0  0  0  0  0
  -30.3668   64.9340   65.0460 C   0  0  0  0  0  0  0  0  0  0  0  0
  -34.8430   62.7079   61.6040 O   0  0  0  0  0  0  0  0  0  0  0  0
  -32.6851   65.1477   65.5117 C   0  0  0  0  0  0  0  0  0  0  0  0
  -32.6573   62.3121   62.3337 O   0  0  0  0  0  0  0  0  0  0  0  0
  -34.5396   64.0066   61.9492 C   0  0  0  0  0  0  0  0  0  0  0  0
  -33.8473   61.7960   61.9432 C   0  0  0  0  0  0  0  0  0  0  0  0
  -34.3905   60.8793   63.0317 C   0  0  0  0  0  0  0  0  0  0  0  0
  -35.8849   60.7769   62.8598 C   0  0  0  0  0  0  0  0  0  0  0  0
  -36.2555   59.6941   61.9448 C   0  0  0  0  0  0  0  0  0  0  0  0
  -36.7591   58.4413   62.4968 C   0  0  0  0  0  0  0  0  0  0  0  0
  -37.8511   57.7160   61.8743 C   0  0  0  0  0  0  0  0  0  0  0  0
  -39.1694   57.4610   62.4340 C   0  0  0  0  0  0  0  0  0  0  0  0
  -39.9934   56.3876   61.7518 C   0  0  0  0  0  0  0  0  0  0  0  0
  -41.3356   56.2284   62.4317 C   0  0  0  0  0  0  0  0  0  0  0  0
  -42.4897   56.1785   61.4797 C   0  0  0  0  0  0  0  0  0  0  0  0
  -43.3959   57.3512   61.5436 C   0  0  0  0  0  0  0  0  0  0  0  0
  -44.5884   57.1718   60.6376 C   0  0  0  0  0  0  0  0  0  0  0  0
  -45.8827   56.9972   61.3657 C   0  0  0  0  0  0  0  0  0  0  0  0
  -46.5058   58.3256   61.7675 C   0  0  0  0  0  0  0  0  0  0  0  0
  -47.8294   58.1829   62.4028 C   0  0  0  0  0  0  0  0  0  0  0  0
  -48.9812   58.4686   61.5344 C   0  0  0  0  0  0  0  0  0  0  0  0
  -50.1521   59.1929   62.0448 C   0  0  0  0  0  0  0  0  0  0  0  0
  -50.0432   59.6624   63.4411 C   0  0  0  0  0  0  0  0  0  0  0  0
  1  9  1  0
  1 11  1  1
  1 13  1  0
  1 15  1  0
  2  3  1  1
  2  5  1  0
  2 17  1  0
  4  6  1  0
  4  8  1  0
  4 10  1  0
  4 12  1  0
  5  6  1  0
  7  9  1  0
  7 10  1  0
 14 17  1  0
 14 18  1  0
 16 18  1  0
 18 19  1  0
 19 20  1  0
 20 21  1  0
 21 22  1  0
 22 23  1  0
 23 24  1  0
 24 25  1  0
 25 26  1  0
 26 27  1  0
 27 28  1  0
 28 29  1  0
 29 30  1  0
 30 31  1  0
 31 32  1  0
 32 33  1  0
 33 34  1  0
 34 35  1  0
M  CHG  2   1   1   8  -1
M  END
$$$$
