
     RDKit          3D

 35 34  0  0  0  0  0  0  0  0999 V2000
  -31.0793   63.5980   63.0457 N   0  0  2  0  0  4  0  0  0  0  0  0
  -36.1173   62.8393   63.5642 C   0  0  1  0  0  0  0  0  0  0  0  0
  -35.2147   62.7108   62.5145 O   0  0  0  0  0  0  0  0  0  0  0  0
  -34.1660   65.6421   64.6679 P   0  0  0  0  0  5  0  0  0  0  0  0
  -36.2490   64.2703   63.9464 C   0  0  0  0  0  0  0  0  0  0  0  0
  -35.1697   65.0434   63.5741 O   0  0  0  0  0  0  0  0  0  0  0  0
  -31.6053   65.5302   64.4136 C   0  0  0  0  0  0  0  0  0  0  0  0
  -33.7116   64.7630   66.0184 O   0  0  0  0  0  1  0  0  0  0  0  0
  -30.6824   64.9251   63.3779 C   0  0  0  0  0  0  0  0  0  0  0  0
  -32.8823   65.3122   63.9787 O   0  0  0  0  0  0  0  0  0  0  0  0
  -30.1402   63.0262   62.1066 C   0  0  0  0  0  0  0  0  0  0  0  0
  -33.7541   67.2845   64.6234 O   0  0  0  0  0  0  0  0  0  0  0  0
  -32.3938   63.7038   62.3965 C   0  0  0  0  0  0  0  0  0  0  0  0
  -38.1097   61.9628   64.4023 O   0  0  0  0  0  0  0  0  0  0  0  0
  -31.2062   62.7178   64.2006 C   0  0  0  0  0  0  0  0  0  0  0  0
  -38.9356   59.8361   64.9134 O   0  0  0  0  0  0  0  0  0  0  0  0
  -37.4741   62.2659   63.2182 C   0  0  0  0  0  0  0  0  0  0  0  0
  -39.1164   61.0112   64.2645 C   0  0  0  0  0  0  0  0  0  0  0  0
  -40.4320   61.6416   64.7025 C   0  0  0  0  0  0  0  0  0  0  0  0
  -41.5255   61.1250   63.8021 C   0  0  0  0  0  0  0  0  0  0  0  0
  -42.4632   62.1842   63.4203 C   0  0  0  0  0  0  0  0  0  0  0  0
  -43.5964   61.8523   62.5637 C   0  0  0  0  0  0  0  0  0  0  0  0
  -44.2566   60.5620   62.6355 C   0  0  0  0  0  0  0  0  0  0  0  0
  -45.2627   60.1414   63.5983 C   0  0  0  0  0  0  0  0  0  0  0  0
  -46.2592   59.1047   63.1201 C   0  0  0  0  0  0  0  0  0  0  0  0
  -47.4596   59.7686   62.4819 C   0  0  0  0  0  0  0  0  0  0  0  0
  -48.4881   58.8014   61.9844 C   0  0  0  0  0  0  0  0  0  0  0  0
  -49.6607   59.4284   61.3272 C   0  0  0  0  0  0  0  0  0  0  0  0
  -50.4795   58.4072   60.5777 C   0  0  0  0  0  0  0  0  0  0  0  0
  -49.8896   57.0332   60.5846 C   0  0  0  0  0  0  0  0  0  0  0  0
  -49.6363   56.5038   59.1811 C   0  0  0  0  0  0  0  0  0  0  0  0
  -48.3909   57.0155   58.5784 C   0  0  0  0  0  0  0  0  0  0  0  0
  -47.1574   56.3394   59.0068 C   0  0  0  0  0  0  0  0  0  0  0  0
  -46.7453   55.0647   58.4053 C   0  0  0  0  0  0  0  0  0  0  0  0
  -45.8002   54.2646   59.2106 C   0  0  0  0  0  0  0  0  0  0  0  0
  1  9  1  0
  1 11  1  6
  1 13  1  0
  1 15  1  0
  2  3  1  6
  2  5  1  0
  2 17  1  0
  4  6  1  0
  4  8  1  0
  4 10  1  0
  4 12  1  0
  5  6  1  0
  7  9  1  0
  7 10  1  0
 14 17  1  0
 14 18  1  0
 16 18  1  0
 18 19  1  0
 19 20  1  0
 20 21  1  0
 21 22  1  0
 22 23  1  0
 23 24  1  0
 24 25  1  0
 25 26  1  0
 26 27  1  0
 27 28  1  0
 28 29  1  0
 29 30  1  0
 30 31  1  0
 31 32  1  0
 32 33  1  0
 33 34  1  0
 34 35  1  0
M  CHG  2   1   1   8  -1
M  END
$$$$
