
     RDKit          3D

 35 34  0  0  0  0  0  0  0  0999 V2000
  -28.8905   70.4976   63.8406 N   0  0  2  0  0  4  0  0  0  0  0  0
  -33.8062   66.0064   62.7101 C   0  0  1  0  0  0  0  0  0  0  0  0
  -35.0808   66.2313   63.2129 O   0  0  0  0  0  0  0  0  0  0  0  0
  -31.0077   68.4161   61.4998 P   0  0  0  0  0  5  0  0  0  0  0  0
  -33.0658   67.2716   62.4237 C   0  0  0  0  0  0  0  0  0  0  0  0
  -31.8921   67.0595   61.7696 O   0  0  0  0  0  0  0  0  0  0  0  0
  -29.4477   68.1485   63.3954 C   0  0  0  0  0  0  0  0  0  0  0  0
  -31.4889   69.0078   62.8339 O   0  0  0  0  0  1  0  0  0  0  0  0
  -28.5748   69.1313   64.1254 C   0  0  0  0  0  0  0  0  0  0  0  0
  -29.4550   68.4655   62.0557 O   0  0  0  0  0  0  0  0  0  0  0  0
  -30.3334   70.6364   63.7938 C   0  0  0  0  0  0  0  0  0  0  0  0
  -30.5116   67.9042   60.1309 O   0  0  0  0  0  0  0  0  0  0  0  0
  -28.3795   70.9254   62.5461 C   0  0  0  0  0  0  0  0  0  0  0  0
  -33.0989   63.7459   63.2978 O   0  0  0  0  0  0  0  0  0  0  0  0
  -28.2908   71.3822   64.8244 C   0  0  0  0  0  0  0  0  0  0  0  0
  -31.0401   63.1745   63.8972 O   0  0  0  0  0  0  0  0  0  0  0  0
  -32.9763   65.0771   63.5307 C   0  0  0  0  0  0  0  0  0  0  0  0
  -32.4089   62.8983   64.1535 C   0  0  0  0  0  0  0  0  0  0  0  0
  -32.5954   61.4546   63.7717 C   0  0  0  0  0  0  0  0  0  0  0  0
  -33.8928   61.1891   63.0961 C   0  0  0  0  0  0  0  0  0  0  0  0
  -34.3363   59.7581   63.0515 C   0  0  0  0  0  0  0  0  0  0  0  0
  -35.8246   59.7199   62.7838 C   0  0  0  0  0  0  0  0  0  0  0  0
  -36.4287   58.4755   63.3272 C   0  0  0  0  0  0  0  0  0  0  0  0
  -36.7838   57.4656   62.2247 C   0  0  0  0  0  0  0  0  0  0  0  0
  -37.9138   56.5794   62.6837 C   0  0  0  0  0  0  0  0  0  0  0  0
  -39.1994   57.1569   62.1249 C   0  0  0  0  0  0  0  0  0  0  0  0
  -40.1126   56.0787   61.5960 C   0  0  0  0  0  0  0  0  0  0  0  0
  -41.3555   56.6791   60.9739 C   0  0  0  0  0  0  0  0  0  0  0  0
  -42.5761   56.4443   61.8286 C   0  0  0  0  0  0  0  0  0  0  0  0
  -43.8160   56.9195   61.0928 C   0  0  0  0  0  0  0  0  0  0  0  0
  -44.9758   56.7607   62.0023 C   0  0  0  0  0  0  0  0  0  0  0  0
  -46.2075   57.4760   61.6329 C   0  0  0  0  0  0  0  0  0  0  0  0
  -47.2808   56.7346   60.9398 C   0  0  0  0  0  0  0  0  0  0  0  0
  -48.5287   57.6334   61.0034 C   0  0  0  0  0  0  0  0  0  0  0  0
  -49.7245   56.7175   60.9602 C   0  0  0  0  0  0  0  0  0  0  0  0
  1  9  1  0
  1 11  1  6
  1 13  1  0
  1 15  1  0
  2  3  1  1
  2  5  1  0
  2 17  1  0
  4  6  1  0
  4  8  1  0
  4 10  1  0
  4 12  1  0
  5  6  1  0
  7  9  1  0
  7 10  1  0
 14 17  1  0
 14 18  1  0
 16 18  1  0
 18 19  1  0
 19 20  1  0
 20 21  1  0
 21 22  1  0
 22 23  1  0
 23 24  1  0
 24 25  1  0
 25 26  1  0
 26 27  1  0
 27 28  1  0
 28 29  1  0
 29 30  1  0
 30 31  1  0
 31 32  1  0
 32 33  1  0
 33 34  1  0
 34 35  1  0
M  CHG  2   1   1   8  -1
M  END
$$$$
