
     RDKit          3D

 35 34  0  0  0  0  0  0  0  0999 V2000
  -30.7197   68.4131   63.4378 N   0  0  2  0  0  4  0  0  0  0  0  0
  -34.1247   63.2909   66.3043 C   0  0  1  0  0  0  0  0  0  0  0  0
  -34.1419   62.0389   66.9045 O   0  0  0  0  0  0  0  0  0  0  0  0
  -32.3400   65.4201   64.1137 P   0  0  0  0  0  5  0  0  0  0  0  0
  -32.7439   63.7559   65.9757 C   0  0  0  0  0  0  0  0  0  0  0  0
  -32.6900   65.0831   65.6819 O   0  0  0  0  0  0  0  0  0  0  0  0
  -32.9436   67.8086   64.2837 C   0  0  0  0  0  0  0  0  0  0  0  0
  -33.5306   64.5645   63.6532 O   0  0  0  0  0  1  0  0  0  0  0  0
  -32.0600   68.8580   63.6681 C   0  0  0  0  0  0  0  0  0  0  0  0
  -33.0411   66.7421   63.4186 O   0  0  0  0  0  0  0  0  0  0  0  0
  -30.2579   67.7116   64.6202 C   0  0  0  0  0  0  0  0  0  0  0  0
  -31.1064   66.2642   64.4980 O   0  0  0  0  0  0  0  0  0  0  0  0
  -29.8002   69.5195   63.2132 C   0  0  0  0  0  0  0  0  0  0  0  0
  -35.4507   62.2772   64.5238 O   0  0  0  0  0  0  0  0  0  0  0  0
  -30.6486   67.5808   62.2494 C   0  0  0  0  0  0  0  0  0  0  0  0
  -34.3839   60.6629   65.6103 O   0  0  0  0  0  0  0  0  0  0  0  0
  -35.0256   63.4187   65.1220 C   0  0  0  0  0  0  0  0  0  0  0  0
  -35.6778   61.1875   65.3530 C   0  0  0  0  0  0  0  0  0  0  0  0
  -36.4103   60.0875   64.6331 C   0  0  0  0  0  0  0  0  0  0  0  0
  -37.6560   60.5503   63.9665 C   0  0  0  0  0  0  0  0  0  0  0  0
  -38.5651   59.4796   63.4434 C   0  0  0  0  0  0  0  0  0  0  0  0
  -39.8704   59.5367   64.2055 C   0  0  0  0  0  0  0  0  0  0  0  0
  -40.6879   60.6987   63.7694 C   0  0  0  0  0  0  0  0  0  0  0  0
  -41.4901   60.4053   62.4918 C   0  0  0  0  0  0  0  0  0  0  0  0
  -42.9500   60.7032   62.7217 C   0  0  0  0  0  0  0  0  0  0  0  0
  -43.7505   59.6590   61.9687 C   0  0  0  0  0  0  0  0  0  0  0  0
  -45.1924   59.6336   62.4119 C   0  0  0  0  0  0  0  0  0  0  0  0
  -46.0301   58.7831   61.4806 C   0  0  0  0  0  0  0  0  0  0  0  0
  -47.3670   58.4404   62.0895 C   0  0  0  0  0  0  0  0  0  0  0  0
  -47.8780   57.1367   61.5033 C   0  0  0  0  0  0  0  0  0  0  0  0
  -48.6650   57.4592   60.2892 C   0  0  0  0  0  0  0  0  0  0  0  0
  -50.1082   57.1769   60.3434 C   0  0  0  0  0  0  0  0  0  0  0  0
  -50.8118   56.8219   59.0941 C   0  0  0  0  0  0  0  0  0  0  0  0
  -51.9128   57.8815   58.9096 C   0  0  0  0  0  0  0  0  0  0  0  0
  -52.6893   57.4893   57.6792 C   0  0  0  0  0  0  0  0  0  0  0  0
  1  9  1  0
  1 11  1  1
  1 13  1  0
  1 15  1  0
  2  3  1  6
  2  5  1  0
  2 17  1  0
  4  6  1  0
  4  8  1  0
  4 10  1  0
  4 12  1  0
  5  6  1  0
  7  9  1  0
  7 10  1  0
 14 17  1  0
 14 18  1  0
 16 18  1  0
 18 19  1  0
 19 20  1  0
 20 21  1  0
 21 22  1  0
 22 23  1  0
 23 24  1  0
 24 25  1  0
 25 26  1  0
 26 27  1  0
 27 28  1  0
 28 29  1  0
 29 30  1  0
 30 31  1  0
 31 32  1  0
 32 33  1  0
 33 34  1  0
 34 35  1  0
M  CHG  2   1   1   8  -1
M  END
$$$$
