
     RDKit          3D

 35 34  0  0  0  0  0  0  0  0999 V2000
  -30.3408   66.1725   65.1214 N   0  0  2  0  0  4  0  0  0  0  0  0
  -34.2669   63.9646   63.3734 C   0  0  1  0  0  0  0  0  0  0  0  0
  -33.7000   63.1459   62.4057 O   0  0  0  0  0  0  0  0  0  0  0  0
  -32.7337   67.1889   61.9141 P   0  0  0  0  0  5  0  0  0  0  0  0
  -33.7178   65.3534   63.3500 C   0  0  0  0  0  0  0  0  0  0  0  0
  -33.7454   65.9108   62.1094 O   0  0  0  0  0  0  0  0  0  0  0  0
  -31.2550   67.9758   63.7287 C   0  0  0  0  0  0  0  0  0  0  0  0
  -33.3099   67.8512   63.1753 O   0  0  0  0  0  1  0  0  0  0  0  0
  -31.3754   67.1509   64.9801 C   0  0  0  0  0  0  0  0  0  0  0  0
  -31.2518   67.1360   62.6378 O   0  0  0  0  0  0  0  0  0  0  0  0
  -29.0617   66.8203   64.9028 C   0  0  0  0  0  0  0  0  0  0  0  0
  -32.1326   66.6040   60.6184 O   0  0  0  0  0  0  0  0  0  0  0  0
  -30.4507   65.1048   64.1376 C   0  0  0  0  0  0  0  0  0  0  0  0
  -36.3974   63.8456   64.5577 O   0  0  0  0  0  0  0  0  0  0  0  0
  -30.4102   65.5316   66.4230 C   0  0  0  0  0  0  0  0  0  0  0  0
  -37.2779   62.5822   66.1556 O   0  0  0  0  0  0  0  0  0  0  0  0
  -35.7588   63.9811   63.3681 C   0  0  0  0  0  0  0  0  0  0  0  0
  -37.1165   62.6737   64.7480 C   0  0  0  0  0  0  0  0  0  0  0  0
  -36.3103   61.4615   64.3667 C   0  0  0  0  0  0  0  0  0  0  0  0
  -37.1455   60.3259   63.8943 C   0  0  0  0  0  0  0  0  0  0  0  0
  -36.4062   59.1123   63.4180 C   0  0  0  0  0  0  0  0  0  0  0  0
  -37.3495   57.9301   63.4401 C   0  0  0  0  0  0  0  0  0  0  0  0
  -38.6923   58.3144   62.9321 C   0  0  0  0  0  0  0  0  0  0  0  0
  -39.4529   57.1246   62.3259 C   0  0  0  0  0  0  0  0  0  0  0  0
  -40.2196   57.5716   61.1071 C   0  0  0  0  0  0  0  0  0  0  0  0
  -41.6351   57.0463   61.2433 C   0  0  0  0  0  0  0  0  0  0  0  0
  -42.6189   57.8829   60.4632 C   0  0  0  0  0  0  0  0  0  0  0  0
  -44.0411   57.4408   60.7358 C   0  0  0  0  0  0  0  0  0  0  0  0
  -45.0428   58.4726   60.2803 C   0  0  0  0  0  0  0  0  0  0  0  0
  -46.4515   57.9554   60.5097 C   0  0  0  0  0  0  0  0  0  0  0  0
  -47.4006   59.0163   60.0959 C   0  0  0  0  0  0  0  0  0  0  0  0
  -48.5279   58.5994   59.2470 C   0  0  0  0  0  0  0  0  0  0  0  0
  -49.9050   58.8087   59.7386 C   0  0  0  0  0  0  0  0  0  0  0  0
  -50.2272   57.5972   60.6317 C   0  0  0  0  0  0  0  0  0  0  0  0
  -51.6959   57.6786   60.9583 C   0  0  0  0  0  0  0  0  0  0  0  0
  1  9  1  0
  1 11  1  1
  1 13  1  0
  1 15  1  0
  2  3  1  6
  2  5  1  0
  2 17  1  0
  4  6  1  0
  4  8  1  0
  4 10  1  0
  4 12  1  0
  5  6  1  0
  7  9  1  0
  7 10  1  0
 14 17  1  0
 14 18  1  0
 16 18  1  0
 18 19  1  0
 19 20  1  0
 20 21  1  0
 21 22  1  0
 22 23  1  0
 23 24  1  0
 24 25  1  0
 25 26  1  0
 26 27  1  0
 27 28  1  0
 28 29  1  0
 29 30  1  0
 30 31  1  0
 31 32  1  0
 32 33  1  0
 33 34  1  0
 34 35  1  0
M  CHG  2   1   1   8  -1
M  END
$$$$
