
     RDKit          3D

 58 60  0  0  0  0  0  0  0  0999 V2000
  -35.9510   61.6933   58.6075 N   0  0  0  0  0  0  0  0  0  0  0  0
  -37.2669   61.1630   58.7503 C   0  0  0  0  0  0  0  0  0  0  0  0
  -35.8472   62.8487   63.2339 O   0  0  0  0  0  0  0  0  0  0  0  0
  -24.5569   62.7415   64.4355 Si  0  0  0  0  0  4  0  0  0  0  0  0
  -35.6032   61.5026   57.2896 O   0  0  0  0  0  0  0  0  0  0  0  0
  -25.9957   62.5716   65.3459 O   0  0  0  0  0  0  0  0  0  0  0  0
  -35.8185   63.0687   58.8781 C   0  0  0  0  0  0  0  0  0  0  0  0
  -30.1612   63.4058   63.6421 N   0  0  0  0  0  0  0  0  0  0  0  0
  -34.4448   63.9814   64.6286 O   0  0  0  0  0  0  0  0  0  0  0  0
  -34.7894   63.4252   59.9760 C   0  0  0  0  0  0  0  0  0  0  0  0
  -35.0539   66.3100   63.4297 N   0  0  0  0  0  0  0  0  0  0  0  0
  -31.8716   64.9139   64.0577 O   0  0  0  0  0  0  0  0  0  0  0  0
  -34.9550   64.8561   60.3197 C   0  0  0  0  0  0  0  0  0  0  0  0
  -26.9060   61.9331   64.5901 N   0  0  0  0  0  0  0  0  0  0  0  0
  -35.6900   67.9104   65.0911 O   0  0  0  0  0  0  0  0  0  0  0  0
  -35.8752   65.2959   61.3754 C   0  0  0  0  0  0  0  0  0  0  0  0
  -38.4089   67.4394   63.6703 N   0  0  0  0  0  0  0  0  0  0  0  0
  -37.2573   59.7901   59.1153 O   0  0  0  0  0  0  0  0  0  0  0  0
  -35.6251   65.1098   62.7983 C   0  0  1  0  0  0  0  0  0  0  0  0
  -27.4635   62.6044   62.4692 O   0  0  0  0  0  0  0  0  0  0  0  0
  -34.8918   63.9651   63.3395 C   0  0  2  0  0  0  0  0  0  0  0  0
  -38.8346   66.7433   65.8061 O   0  0  0  0  0  0  0  0  0  0  0  0
  -33.6947   62.8598   64.9682 C   0  0  1  0  0  0  0  0  0  0  0  0
  -41.9168   67.0668   62.4221 O   0  0  0  0  0  0  0  0  0  0  0  0
  -32.4426   62.6308   64.2418 C   0  0  0  0  0  0  0  0  0  0  0  0
  -33.4599   62.9606   66.4584 C   0  0  0  0  0  0  0  0  0  0  0  0
  -31.3410   63.6209   64.3787 C   0  0  1  0  0  0  0  0  0  0  0  0
  -35.9768   67.2359   63.9548 C   0  0  2  0  0  0  0  0  0  0  0  0
  -38.2725   61.4493   57.7441 C   0  0  0  0  0  0  0  0  0  0  0  0
  -39.6823   61.7581   57.9541 C   0  0  0  0  0  0  0  0  0  0  0  0
  -40.7148   60.7286   58.1487 C   0  0  0  0  0  0  0  0  0  0  0  0
  -41.6963   60.4797   57.0694 C   0  0  0  0  0  0  0  0  0  0  0  0
  -42.7630   59.4631   57.3523 C   0  0  0  0  0  0  0  0  0  0  0  0
  -44.1455   59.9130   57.5116 C   0  0  0  0  0  0  0  0  0  0  0  0
  -45.2597   59.0504   57.8999 C   0  0  0  0  0  0  0  0  0  0  0  0
  -45.5857   58.9267   59.3488 C   0  0  0  0  0  0  0  0  0  0  0  0
  -46.6316   57.8417   59.5829 C   0  0  0  0  0  0  0  0  0  0  0  0
  -46.7048   57.3573   60.9837 C   0  0  0  0  0  0  0  0  0  0  0  0
  -46.8998   55.8813   61.1087 C   0  0  0  0  0  0  0  0  0  0  0  0
  -47.8308   55.5199   62.2405 C   0  0  0  0  0  0  0  0  0  0  0  0
  -48.0933   54.0494   62.3578 C   0  0  0  0  0  0  0  0  0  0  0  0
  -49.0570   53.6680   63.4376 C   0  0  0  0  0  0  0  0  0  0  0  0
  -50.3336   53.1904   62.7362 C   0  0  0  0  0  0  0  0  0  0  0  0
  -26.3817   60.8740   63.7821 C   0  0  0  0  0  0  0  0  0  0  0  0
  -27.3617   59.7176   63.7861 C   0  0  0  0  0  0  0  0  0  0  0  0
  -28.6963   60.1360   64.3932 C   0  0  0  0  0  0  0  0  0  0  0  0
  -29.3755   61.1831   63.5240 C   0  0  0  0  0  0  0  0  0  0  0  0
  -29.1395   62.5968   64.1557 C   0  0  1  0  0  0  0  0  0  0  0  0
  -27.7174   62.8922   63.8249 C   0  0  0  0  0  0  0  0  0  0  0  0
  -37.6720   66.1337   65.4253 C   0  0  0  0  0  0  0  0  0  0  0  0
  -39.2605   67.5690   64.8032 C   0  0  0  0  0  0  0  0  0  0  0  0
  -37.3395   66.5463   64.0116 C   0  0  1  0  0  0  0  0  0  0  0  0
  -40.6791   66.7093   62.9612 C   0  0  0  0  0  0  0  0  0  0  0  0
  -40.3021   65.2970   62.6712 C   0  0  0  0  0  0  0  0  0  0  0  0
  -41.0613   64.3414   63.5682 C   0  0  0  0  0  0  0  0  0  0  0  0
  -40.6611   64.6641   64.9913 C   0  0  0  0  0  0  0  0  0  0  0  0
  -41.1608   66.0365   65.3389 C   0  0  0  0  0  0  0  0  0  0  0  0
  -40.6649   67.1014   64.4003 C   0  0  0  0  0  0  0  0  0  0  0  0
  1  2  1  0
  1  5  1  0
  1  7  1  0
  2 18  1  0
  2 29  1  0
 21  3  1  1
  4  6  1  0
  6 14  1  0
  7 10  1  0
  8 27  1  0
 48  8  1  6
  9 21  1  0
  9 23  1  0
 10 13  1  0
 11 19  1  0
 11 28  1  0
 27 12  1  6
 13 16  1  0
 14 44  1  0
 14 49  1  0
 28 15  1  1
 19 16  1  6
 17 51  1  0
 17 52  1  0
 19 21  1  0
 20 49  1  0
 22 50  1  0
 22 51  1  0
 23 25  1  0
 23 26  1  1
 24 53  1  0
 25 27  1  0
 28 52  1  0
 29 30  1  0
 30 31  1  0
 31 32  1  0
 32 33  1  0
 33 34  1  0
 34 35  1  0
 35 36  1  0
 36 37  1  0
 37 38  1  0
 38 39  1  0
 39 40  1  0
 40 41  1  0
 41 42  1  0
 42 43  1  0
 44 45  1  0
 45 46  1  0
 46 47  1  0
 47 48  1  0
 48 49  1  0
 52 50  1  1
 51 58  1  0
 53 54  1  0
 53 58  1  0
 54 55  1  0
 55 56  1  0
 56 57  1  0
 57 58  1  0
M  END
$$$$
