
     RDKit          3D

 58 60  0  0  0  0  0  0  0  0999 V2000
  -39.9010   61.4973   58.8515 N   0  0  0  0  0  0  0  0  0  0  0  0
  -41.0140   60.6292   59.0535 C   0  0  0  0  0  0  0  0  0  0  0  0
  -36.8448   60.9759   63.5944 O   0  0  0  0  0  0  0  0  0  0  0  0
  -26.6329   63.1992   61.2860 Si  0  0  0  0  0  4  0  0  0  0  0  0
  -40.1191   62.1238   57.6456 O   0  0  0  0  0  0  0  0  0  0  0  0
  -26.8853   64.4762   62.3966 O   0  0  0  0  0  0  0  0  0  0  0  0
  -39.7343   62.5055   59.8202 C   0  0  0  0  0  0  0  0  0  0  0  0
  -30.2412   61.3638   62.3643 N   0  0  0  0  0  0  0  0  0  0  0  0
  -34.5941   61.3274   63.6681 O   0  0  0  0  0  0  0  0  0  0  0  0
  -38.7465   62.1636   60.9598 C   0  0  0  0  0  0  0  0  0  0  0  0
  -35.4802   63.4779   61.5040 N   0  0  0  0  0  0  0  0  0  0  0  0
  -31.8655   60.5259   60.9387 O   0  0  0  0  0  0  0  0  0  0  0  0
  -38.4603   63.4057   61.7136 C   0  0  0  0  0  0  0  0  0  0  0  0
  -28.0730   64.2897   62.9984 N   0  0  0  0  0  0  0  0  0  0  0  0
  -35.0011   65.7376   60.8795 O   0  0  0  0  0  0  0  0  0  0  0  0
  -37.5159   63.4277   62.8371 C   0  0  0  0  0  0  0  0  0  0  0  0
  -32.4459   64.7355   62.5882 N   0  0  0  0  0  0  0  0  0  0  0  0
  -40.7415   59.2987   58.6366 O   0  0  0  0  0  0  0  0  0  0  0  0
  -36.1267   63.0009   62.7370 C   0  0  1  0  0  0  0  0  0  0  0  0
  -28.4607   62.6050   64.5054 O   0  0  0  0  0  0  0  0  0  0  0  0
  -35.6998   61.6136   62.9216 C   0  0  2  0  0  0  0  0  0  0  0  0
  -31.5447   65.6508   60.6967 O   0  0  0  0  0  0  0  0  0  0  0  0
  -33.8194   60.3003   63.1380 C   0  0  1  0  0  0  0  0  0  0  0  0
  -28.7401   63.2996   61.7135 O   0  0  0  0  0  0  0  0  0  0  0  0
  -32.3627   60.4200   63.2439 C   0  0  0  0  0  0  0  0  0  0  0  0
  -34.3198   59.0318   63.7912 C   0  0  0  0  0  0  0  0  0  0  0  0
  -31.6255   61.1743   62.1950 C   0  0  1  0  0  0  0  0  0  0  0  0
  -34.7030   64.6471   61.6212 C   0  0  2  0  0  0  0  0  0  0  0  0
  -42.3434   61.0585   58.6613 C   0  0  0  0  0  0  0  0  0  0  0  0
  -43.6206   60.6312   59.2212 C   0  0  0  0  0  0  0  0  0  0  0  0
  -44.2155   61.2300   60.4258 C   0  0  0  0  0  0  0  0  0  0  0  0
  -44.6907   60.3434   61.5114 C   0  0  0  0  0  0  0  0  0  0  0  0
  -45.9458   60.7613   62.2197 C   0  0  0  0  0  0  0  0  0  0  0  0
  -46.4857   59.8999   63.2711 C   0  0  0  0  0  0  0  0  0  0  0  0
  -47.8809   59.4730   63.3597 C   0  0  0  0  0  0  0  0  0  0  0  0
  -48.1847   58.1922   64.0583 C   0  0  0  0  0  0  0  0  0  0  0  0
  -49.4117   58.3354   64.9527 C   0  0  0  0  0  0  0  0  0  0  0  0
  -49.8151   57.0833   65.6395 C   0  0  0  0  0  0  0  0  0  0  0  0
  -51.2563   57.0400   66.0308 C   0  0  0  0  0  0  0  0  0  0  0  0
  -51.6193   55.7587   66.7411 C   0  0  0  0  0  0  0  0  0  0  0  0
  -51.0356   55.6465   68.1165 C   0  0  0  0  0  0  0  0  0  0  0  0
  -51.5207   54.4742   68.9106 C   0  0  0  0  0  0  0  0  0  0  0  0
  -52.9523   54.8042   69.3479 C   0  0  0  0  0  0  0  0  0  0  0  0
  -28.2452   65.0058   64.2259 C   0  0  0  0  0  0  0  0  0  0  0  0
  -29.6639   65.5353   64.2946 C   0  0  0  0  0  0  0  0  0  0  0  0
  -30.5307   64.9151   63.2042 C   0  0  0  0  0  0  0  0  0  0  0  0
  -30.6908   63.4199   63.4326 C   0  0  0  0  0  0  0  0  0  0  0  0
  -29.7090   62.6541   62.4824 C   0  0  1  0  0  0  0  0  0  0  0  0
  -28.3787   62.8560   63.1214 C   0  0  0  0  0  0  0  0  0  0  0  0
  -32.6000   64.8833   60.2898 C   0  0  0  0  0  0  0  0  0  0  0  0
  -31.4686   65.6261   62.0615 C   0  0  0  0  0  0  0  0  0  0  0  0
  -33.2353   64.2388   61.4983 C   0  0  1  0  0  0  0  0  0  0  0  0
  -29.4796   64.3896   61.2493 C   0  0  0  0  0  0  0  0  0  0  0  0
  -28.7139   65.2569   60.3098 C   0  0  0  0  0  0  0  0  0  0  0  0
  -27.7365   66.1355   61.0626 C   0  0  0  0  0  0  0  0  0  0  0  0
  -28.5561   67.0209   61.9758 C   0  0  0  0  0  0  0  0  0  0  0  0
  -29.2222   66.1659   63.0147 C   0  0  0  0  0  0  0  0  0  0  0  0
  -30.0814   65.0816   62.4257 C   0  0  0  0  0  0  0  0  0  0  0  0
  1  2  1  0
  1  5  1  0
  1  7  1  0
  2 18  1  0
  2 29  1  0
 21  3  1  1
  4  6  1  0
  6 14  1  0
  7 10  1  0
  8 27  1  0
 48  8  1  1
  9 21  1  0
  9 23  1  0
 10 13  1  0
 11 19  1  0
 11 28  1  0
 27 12  1  6
 13 16  1  0
 14 44  1  0
 14 49  1  0
 28 15  1  6
 19 16  1  6
 17 51  1  0
 17 52  1  0
 19 21  1  0
 20 49  1  0
 22 50  1  0
 22 51  1  0
 23 25  1  0
 23 26  1  1
 24 53  1  0
 25 27  1  0
 28 52  1  0
 29 30  1  0
 30 31  1  0
 31 32  1  0
 32 33  1  0
 33 34  1  0
 34 35  1  0
 35 36  1  0
 36 37  1  0
 37 38  1  0
 38 39  1  0
 39 40  1  0
 40 41  1  0
 41 42  1  0
 42 43  1  0
 44 45  1  0
 45 46  1  0
 46 47  1  0
 47 48  1  0
 48 49  1  0
 52 50  1  6
 51 58  1  0
 53 54  1  0
 53 58  1  0
 54 55  1  0
 55 56  1  0
 56 57  1  0
 57 58  1  0
M  END
$$$$
