
     RDKit          3D

 58 60  0  0  0  0  0  0  0  0999 V2000
57016.7969-227265.968825215.2070 N   0  0  0  0  0  0  0  0  0  0  0  0
57016.3555-227264.812525215.8438 C   0  0  0  0  0  0  0  0  0  0  0  0
57022.0547-227269.343825214.5703 O   0  0  0  0  0  0  0  0  0  0  0  0
57021.5938-227274.828125204.7266 Si  0  0  0  0  0  4  0  0  0  0  0  0
57015.7266-227266.546925214.4922 O   0  0  0  0  0  0  0  0  0  0  0  0
57022.0391-227273.421925205.5488 O   0  0  0  0  0  0  0  0  0  0  0  0
57017.8555-227265.875025214.2734 C   0  0  0  0  0  0  0  0  0  0  0  0
57023.4727-227272.187525209.6738 N   0  0  0  0  0  0  0  0  0  0  0  0
57022.4453-227270.078125212.4570 O   0  0  0  0  0  0  0  0  0  0  0  0
57018.0742-227267.015625213.3105 C   0  0  0  0  0  0  0  0  0  0  0  0
57019.4297-227269.187525214.2500 N   0  0  0  0  0  0  0  0  0  0  0  0
57025.1445-227270.640625209.2969 O   0  0  0  0  0  0  0  0  0  0  0  0
57019.2773-227266.812525212.5293 C   0  0  0  0  0  0  0  0  0  0  0  0
57023.0938-227273.703125206.3281 N   0  0  0  0  0  0  0  0  0  0  0  0
57019.1602-227270.781225216.0352 O   0  0  0  0  0  0  0  0  0  0  0  0
57020.4102-227267.718825212.5781 C   0  0  0  0  0  0  0  0  0  0  0  0
57021.9922-227268.687525216.0215 N   0  0  0  0  0  0  0  0  0  0  0  0
57017.3867-227264.171925216.5527 O   0  0  0  0  0  0  0  0  0  0  0  0
57020.2695-227269.109425213.0664 C   0  0  1  0  0  0  0  0  0  0  0  0
57022.8320-227274.843825208.3086 O   0  0  0  0  0  0  0  0  0  0  0  0
57021.4336-227269.968825213.3652 C   0  0  2  0  0  0  0  0  0  0  0  0
57021.7969-227269.390625218.2500 O   0  0  0  0  0  0  0  0  0  0  0  0
57022.1211-227269.609425211.1973 C   0  0  1  0  0  0  0  0  0  0  0  0
57025.5234-227266.843825216.9883 O   0  0  0  0  0  0  0  0  0  0  0  0
57023.0781-227269.734425210.1152 C   0  0  0  0  0  0  0  0  0  0  0  0
57020.7773-227270.281225210.8398 C   0  0  0  0  0  0  0  0  0  0  0  0
57023.9922-227271.015625210.0957 C   0  0  1  0  0  0  0  0  0  0  0  0
57019.9375-227269.859425215.3945 C   0  0  2  0  0  0  0  0  0  0  0  0
57015.1094-227264.859425216.5762 C   0  0  0  0  0  0  0  0  0  0  0  0
57014.4375-227263.843825217.2617 C   0  0  0  0  0  0  0  0  0  0  0  0
57014.5547-227263.656225218.7266 C   0  0  0  0  0  0  0  0  0  0  0  0
57014.2656-227262.296925219.3066 C   0  0  0  0  0  0  0  0  0  0  0  0
57015.4375-227261.390625219.7559 C   0  0  0  0  0  0  0  0  0  0  0  0
57015.4336-227260.875025221.1113 C   0  0  0  0  0  0  0  0  0  0  0  0
57014.8633-227259.500025221.4473 C   0  0  0  0  0  0  0  0  0  0  0  0
57015.7461-227258.484425222.1074 C   0  0  0  0  0  0  0  0  0  0  0  0
57015.0234-227257.328125222.4941 C   0  0  0  0  0  0  0  0  0  0  0  0
57014.5039-227256.484425221.4121 C   0  0  0  0  0  0  0  0  0  0  0  0
57014.9141-227254.921925221.4961 C   0  0  0  0  0  0  0  0  0  0  0  0
57015.4844-227254.375025220.2695 C   0  0  0  0  0  0  0  0  0  0  0  0
57016.5742-227253.484425220.4570 C   0  0  0  0  0  0  0  0  0  0  0  0
57016.0781-227252.046925221.0312 C   0  0  0  0  0  0  0  0  0  0  0  0
57016.5234-227251.062525220.0801 C   0  0  0  0  0  0  0  0  0  0  0  0
57023.7031-227274.921925206.0449 C   0  0  0  0  0  0  0  0  0  0  0  0
57025.2227-227274.734425206.2520 C   0  0  0  0  0  0  0  0  0  0  0  0
57025.5234-227273.406225206.9121 C   0  0  0  0  0  0  0  0  0  0  0  0
57025.0156-227273.390625208.3574 C   0  0  0  0  0  0  0  0  0  0  0  0
57023.6250-227272.609425208.3633 C   0  0  1  0  0  0  0  0  0  0  0  0
57022.6680-227273.578125207.7207 C   0  0  0  0  0  0  0  0  0  0  0  0
57020.5234-227269.250025217.7520 C   0  0  0  0  0  0  0  0  0  0  0  0
57022.7031-227269.093825217.2090 C   0  0  0  0  0  0  0  0  0  0  0  0
57020.5820-227268.859425216.2832 C   0  0  1  0  0  0  0  0  0  0  0  0
57024.2539-227267.265625216.5039 C   0  0  0  0  0  0  0  0  0  0  0  0
57023.5703-227266.296925215.7090 C   0  0  0  0  0  0  0  0  0  0  0  0
57022.9141-227265.250025216.5645 C   0  0  0  0  0  0  0  0  0  0  0  0
57021.9375-227265.968825217.5020 C   0  0  0  0  0  0  0  0  0  0  0  0
57022.6484-227266.843825218.3828 C   0  0  0  0  0  0  0  0  0  0  0  0
57023.5039-227267.890625217.7188 C   0  0  0  0  0  0  0  0  0  0  0  0
  1  2  1  0
  1  5  1  0
  1  7  1  0
  2 18  1  0
  2 29  1  0
 21  3  1  1
  4  6  1  0
  6 14  1  0
  7 10  1  0
  8 27  1  0
 48  8  1  1
  9 21  1  0
  9 23  1  0
 10 13  1  0
 11 19  1  0
 11 28  1  0
 27 12  1  6
 13 16  1  0
 14 44  1  0
 14 49  1  0
 28 15  1  1
 19 16  1  1
 17 51  1  0
 17 52  1  0
 19 21  1  0
 20 49  1  0
 22 50  1  0
 22 51  1  0
 23 25  1  0
 23 26  1  6
 24 53  1  0
 25 27  1  0
 28 52  1  0
 29 30  1  0
 30 31  1  0
 31 32  1  0
 32 33  1  0
 33 34  1  0
 34 35  1  0
 35 36  1  0
 36 37  1  0
 37 38  1  0
 38 39  1  0
 39 40  1  0
 40 41  1  0
 41 42  1  0
 42 43  1  0
 44 45  1  0
 45 46  1  0
 46 47  1  0
 47 48  1  0
 48 49  1  0
 52 50  1  1
 51 58  1  0
 53 54  1  0
 53 58  1  0
 54 55  1  0
 55 56  1  0
 56 57  1  0
 57 58  1  0
M  END
$$$$
