
     RDKit          3D

 58 60  0  0  0  0  0  0  0  0999 V2000
  -39.0414   60.7593   60.0358 N   0  0  0  0  0  0  0  0  0  0  0  0
  -39.8186   59.7495   60.6757 C   0  0  0  0  0  0  0  0  0  0  0  0
  -38.7780   62.9355   65.6434 O   0  0  0  0  0  0  0  0  0  0  0  0
  -30.4959   58.8868   62.7664 Si  0  0  0  0  0  4  0  0  0  0  0  0
  -38.7341   60.2706   58.7864 O   0  0  0  0  0  0  0  0  0  0  0  0
  -30.9979   60.1158   61.6869 O   0  0  0  0  0  0  0  0  0  0  0  0
  -39.6877   61.9966   59.8514 C   0  0  0  0  0  0  0  0  0  0  0  0
  -32.6263   63.7420   63.9559 N   0  0  0  0  0  0  0  0  0  0  0  0
  -36.6608   63.6506   65.1955 O   0  0  0  0  0  0  0  0  0  0  0  0
  -38.7973   63.2413   60.0734 C   0  0  0  0  0  0  0  0  0  0  0  0
  -38.5074   65.5358   64.4716 N   0  0  0  0  0  0  0  0  0  0  0  0
  -34.3979   63.8180   62.4630 O   0  0  0  0  0  0  0  0  0  0  0  0
  -39.2657   63.9346   61.2952 C   0  0  0  0  0  0  0  0  0  0  0  0
  -30.5356   61.2949   62.1380 N   0  0  0  0  0  0  0  0  0  0  0  0
  -40.3177   66.3350   63.1261 O   0  0  0  0  0  0  0  0  0  0  0  0
  -38.3300   64.4061   62.3232 C   0  0  0  0  0  0  0  0  0  0  0  0
  -39.9081   68.8080   63.8989 N   0  0  0  0  0  0  0  0  0  0  0  0
  -39.0158   58.6924   61.1821 O   0  0  0  0  0  0  0  0  0  0  0  0
  -38.5525   64.2516   63.7544 C   0  0  1  0  0  0  0  0  0  0  0  0
  -30.3250   61.7852   64.3685 O   0  0  0  0  0  0  0  0  0  0  0  0
  -37.8227   63.2879   64.5789 C   0  0  2  0  0  0  0  0  0  0  0  0
  -37.7516   69.0902   63.1934 O   0  0  0  0  0  0  0  0  0  0  0  0
  -35.7672   62.5963   65.3561 C   0  0  1  0  0  0  0  0  0  0  0  0
  -37.8501   72.9159   62.8552 O   0  0  0  0  0  0  0  0  0  0  0  0
  -34.7047   62.4444   64.3583 C   0  0  0  0  0  0  0  0  0  0  0  0
  -35.2006   62.7489   66.7496 C   0  0  0  0  0  0  0  0  0  0  0  0
  -34.0267   63.6625   63.8395 C   0  0  1  0  0  0  0  0  0  0  0  0
  -39.6032   66.3986   64.2723 C   0  0  2  0  0  0  0  0  0  0  0  0
  -41.0250   59.2561   60.0379 C   0  0  0  0  0  0  0  0  0  0  0  0
  -41.4359   57.8683   59.8586 C   0  0  0  0  0  0  0  0  0  0  0  0
  -42.7053   57.4767   59.2268 C   0  0  0  0  0  0  0  0  0  0  0  0
  -43.9639   57.6141   59.9932 C   0  0  0  0  0  0  0  0  0  0  0  0
  -45.2201   57.8030   59.1946 C   0  0  0  0  0  0  0  0  0  0  0  0
  -46.1934   56.7128   59.1374 C   0  0  0  0  0  0  0  0  0  0  0  0
  -47.5957   56.8303   59.5325 C   0  0  0  0  0  0  0  0  0  0  0  0
  -48.4436   55.6052   59.5008 C   0  0  0  0  0  0  0  0  0  0  0  0
  -49.9180   55.9566   59.6698 C   0  0  0  0  0  0  0  0  0  0  0  0
  -50.4616   55.6722   61.0210 C   0  0  0  0  0  0  0  0  0  0  0  0
  -49.5514   56.0643   62.1391 C   0  0  0  0  0  0  0  0  0  0  0  0
  -49.7171   55.1794   63.3505 C   0  0  0  0  0  0  0  0  0  0  0  0
  -50.0983   55.9249   64.5930 C   0  0  0  0  0  0  0  0  0  0  0  0
  -50.3227   55.0648   65.7972 C   0  0  0  0  0  0  0  0  0  0  0  0
  -49.3080   53.9189   65.7117 C   0  0  0  0  0  0  0  0  0  0  0  0
  -29.1157   61.3599   62.3081 C   0  0  0  0  0  0  0  0  0  0  0  0
  -28.6254   62.7210   61.8557 C   0  0  0  0  0  0  0  0  0  0  0  0
  -29.7934   63.6767   61.6383 C   0  0  0  0  0  0  0  0  0  0  0  0
  -30.5013   63.9655   62.9531 C   0  0  0  0  0  0  0  0  0  0  0  0
  -31.7977   63.0902   63.0337 C   0  0  1  0  0  0  0  0  0  0  0  0
  -31.2781   61.7264   63.3324 C   0  0  0  0  0  0  0  0  0  0  0  0
  -37.7354   68.0495   64.0794 C   0  0  0  0  0  0  0  0  0  0  0  0
  -39.0386   69.5193   63.0250 C   0  0  0  0  0  0  0  0  0  0  0  0
  -39.1362   67.8180   64.5931 C   0  0  1  0  0  0  0  0  0  0  0  0
  -38.5473   71.8392   62.3029 C   0  0  0  0  0  0  0  0  0  0  0  0
  -39.5456   72.2546   61.2774 C   0  0  0  0  0  0  0  0  0  0  0  0
  -40.7852   72.8273   61.9329 C   0  0  0  0  0  0  0  0  0  0  0  0
  -41.3882   71.7219   62.7720 C   0  0  0  0  0  0  0  0  0  0  0  0
  -40.4466   71.3926   63.8940 C   0  0  0  0  0  0  0  0  0  0  0  0
  -39.0746   71.0016   63.4188 C   0  0  0  0  0  0  0  0  0  0  0  0
  1  2  1  0
  1  5  1  0
  1  7  1  0
  2 18  1  0
  2 29  1  0
 21  3  1  1
  4  6  1  0
  6 14  1  0
  7 10  1  0
  8 27  1  0
 48  8  1  1
  9 21  1  0
  9 23  1  0
 10 13  1  0
 11 19  1  0
 11 28  1  0
 27 12  1  6
 13 16  1  0
 14 44  1  0
 14 49  1  0
 28 15  1  6
 19 16  1  6
 17 51  1  0
 17 52  1  0
 19 21  1  0
 20 49  1  0
 22 50  1  0
 22 51  1  0
 23 25  1  0
 23 26  1  1
 24 53  1  0
 25 27  1  0
 28 52  1  0
 29 30  1  0
 30 31  1  0
 31 32  1  0
 32 33  1  0
 33 34  1  0
 34 35  1  0
 35 36  1  0
 36 37  1  0
 37 38  1  0
 38 39  1  0
 39 40  1  0
 40 41  1  0
 41 42  1  0
 42 43  1  0
 44 45  1  0
 45 46  1  0
 46 47  1  0
 47 48  1  0
 48 49  1  0
 52 50  1  6
 51 58  1  0
 53 54  1  0
 53 58  1  0
 54 55  1  0
 55 56  1  0
 56 57  1  0
 57 58  1  0
M  END
$$$$
