
     RDKit          3D

 58 60  0  0  0  0  0  0  0  0999 V2000
  -33.6396   61.8493   65.5168 N   0  0  0  0  0  0  0  0  0  0  0  0
  -34.5843   61.6925   66.5733 C   0  0  0  0  0  0  0  0  0  0  0  0
  -32.3946   66.6553   63.3750 O   0  0  0  0  0  0  0  0  0  0  0  0
  -32.4700   73.1717   67.8837 Si  0  0  0  0  0  4  0  0  0  0  0  0
  -33.1588   60.5889   65.2440 O   0  0  0  0  0  0  0  0  0  0  0  0
  -31.4371   72.0753   67.0722 O   0  0  0  0  0  0  0  0  0  0  0  0
  -34.1555   62.3675   64.3136 C   0  0  0  0  0  0  0  0  0  0  0  0
  -32.9955   71.1041   62.8796 N   0  0  0  0  0  0  0  0  0  0  0  0
  -32.8368   67.0461   61.1735 O   0  0  0  0  0  0  0  0  0  0  0  0
  -33.1003   62.6733   63.2251 C   0  0  0  0  0  0  0  0  0  0  0  0
  -30.6277   64.9695   60.7487 N   0  0  0  0  0  0  0  0  0  0  0  0
  -34.3492   69.4302   62.0203 O   0  0  0  0  0  0  0  0  0  0  0  0
  -32.0139   63.4676   63.8427 C   0  0  0  0  0  0  0  0  0  0  0  0
  -31.2495   72.5159   65.8159 N   0  0  0  0  0  0  0  0  0  0  0  0
  -28.8264   63.6622   59.8698 O   0  0  0  0  0  0  0  0  0  0  0  0
  -31.1089   64.2966   63.0376 C   0  0  0  0  0  0  0  0  0  0  0  0
  -31.7256   62.2479   61.4157 N   0  0  0  0  0  0  0  0  0  0  0  0
  -34.0472   60.9709   67.6729 O   0  0  0  0  0  0  0  0  0  0  0  0
  -31.5391   65.0945   61.8973 C   0  0  1  0  0  0  0  0  0  0  0  0
  -32.8725   73.6062   64.6173 O   0  0  0  0  0  0  0  0  0  0  0  0
  -31.8905   66.5114   61.9983 C   0  0  2  0  0  0  0  0  0  0  0  0
  -30.6614   60.3796   60.6381 O   0  0  0  0  0  0  0  0  0  0  0  0
  -32.4172   68.2052   60.5283 C   0  0  1  0  0  0  0  0  0  0  0  0
  -33.7226   58.5058   60.1089 O   0  0  0  0  0  0  0  0  0  0  0  0
  -32.0841   69.3658   61.3588 C   0  0  0  0  0  0  0  0  0  0  0  0
  -31.2496   67.7910   59.6615 C   0  0  0  0  0  0  0  0  0  0  0  0
  -33.0207   69.7665   62.4427 C   0  0  1  0  0  0  0  0  0  0  0  0
  -29.9428   63.7443   60.6283 C   0  0  2  0  0  0  0  0  0  0  0  0
  -35.9437   61.2857   66.2701 C   0  0  0  0  0  0  0  0  0  0  0  0
  -37.0841   62.1418   65.9640 C   0  0  0  0  0  0  0  0  0  0  0  0
  -38.4771   61.6696   65.9836 C   0  0  0  0  0  0  0  0  0  0  0  0
  -38.9608   60.8070   64.8826 C   0  0  0  0  0  0  0  0  0  0  0  0
  -40.1945   61.2655   64.1619 C   0  0  0  0  0  0  0  0  0  0  0  0
  -41.2137   60.2791   63.8049 C   0  0  0  0  0  0  0  0  0  0  0  0
  -42.2445   60.4811   62.7885 C   0  0  0  0  0  0  0  0  0  0  0  0
  -43.6470   60.1015   63.1197 C   0  0  0  0  0  0  0  0  0  0  0  0
  -44.5744   60.3490   61.9344 C   0  0  0  0  0  0  0  0  0  0  0  0
  -44.7017   59.1961   61.0088 C   0  0  0  0  0  0  0  0  0  0  0  0
  -45.8102   58.2560   61.3550 C   0  0  0  0  0  0  0  0  0  0  0  0
  -46.5636   57.7839   60.1354 C   0  0  0  0  0  0  0  0  0  0  0  0
  -46.6029   56.2930   59.9917 C   0  0  0  0  0  0  0  0  0  0  0  0
  -47.2781   55.7995   58.7504 C   0  0  0  0  0  0  0  0  0  0  0  0
  -46.5577   54.5089   58.3442 C   0  0  0  0  0  0  0  0  0  0  0  0
  -30.7216   73.8428   65.7156 C   0  0  0  0  0  0  0  0  0  0  0  0
  -29.7105   73.8886   64.5872 C   0  0  0  0  0  0  0  0  0  0  0  0
  -29.7774   72.6205   63.7433 C   0  0  0  0  0  0  0  0  0  0  0  0
  -31.1156   72.5238   63.0267 C   0  0  0  0  0  0  0  0  0  0  0  0
  -32.0394   71.5307   63.8101 C   0  0  1  0  0  0  0  0  0  0  0  0
  -32.4598   72.3158   65.0042 C   0  0  0  0  0  0  0  0  0  0  0  0
  -30.2918   61.4061   59.8145 C   0  0  0  0  0  0  0  0  0  0  0  0
  -31.4657   60.8653   61.6311 C   0  0  0  0  0  0  0  0  0  0  0  0
  -30.9733   62.6737   60.2709 C   0  0  1  0  0  0  0  0  0  0  0  0
  -32.5927   58.7895   60.8791 C   0  0  0  0  0  0  0  0  0  0  0  0
  -32.2026   57.6671   61.7785 C   0  0  0  0  0  0  0  0  0  0  0  0
  -33.1123   57.6044   62.9878 C   0  0  0  0  0  0  0  0  0  0  0  0
  -32.9353   58.9064   63.7380 C   0  0  0  0  0  0  0  0  0  0  0  0
  -33.4564   60.0315   62.8914 C   0  0  0  0  0  0  0  0  0  0  0  0
  -32.7979   60.1099   61.5419 C   0  0  0  0  0  0  0  0  0  0  0  0
  1  2  1  0
  1  5  1  0
  1  7  1  0
  2 18  1  0
  2 29  1  0
 21  3  1  1
  4  6  1  0
  6 14  1  0
  7 10  1  0
  8 27  1  0
 48  8  1  6
  9 21  1  0
  9 23  1  0
 10 13  1  0
 11 19  1  0
 11 28  1  0
 27 12  1  6
 13 16  1  0
 14 44  1  0
 14 49  1  0
 28 15  1  6
 19 16  1  1
 17 51  1  0
 17 52  1  0
 19 21  1  0
 20 49  1  0
 22 50  1  0
 22 51  1  0
 23 25  1  0
 23 26  1  1
 24 53  1  0
 25 27  1  0
 28 52  1  0
 29 30  1  0
 30 31  1  0
 31 32  1  0
 32 33  1  0
 33 34  1  0
 34 35  1  0
 35 36  1  0
 36 37  1  0
 37 38  1  0
 38 39  1  0
 39 40  1  0
 40 41  1  0
 41 42  1  0
 42 43  1  0
 44 45  1  0
 45 46  1  0
 46 47  1  0
 47 48  1  0
 48 49  1  0
 52 50  1  1
 51 58  1  0
 53 54  1  0
 53 58  1  0
 54 55  1  0
 55 56  1  0
 56 57  1  0
 57 58  1  0
M  END
$$$$
