
     RDKit          3D

 58 60  0  0  0  0  0  0  0  0999 V2000
  -32.1457   59.0822   63.4284 N   0  0  0  0  0  0  0  0  0  0  0  0
  -32.2542   58.5963   62.0922 C   0  0  0  0  0  0  0  0  0  0  0  0
  -30.5389   65.1219   61.7531 O   0  0  0  0  0  0  0  0  0  0  0  0
  -28.5038   71.6079   64.7689 Si  0  0  0  0  0  4  0  0  0  0  0  0
  -30.8803   58.7486   63.8547 O   0  0  0  0  0  0  0  0  0  0  0  0
  -28.9267   73.1893   64.2710 O   0  0  0  0  0  0  0  0  0  0  0  0
  -32.2823   60.4754   63.5803 C   0  0  0  0  0  0  0  0  0  0  0  0
  -32.1929   70.1166   63.3544 N   0  0  0  0  0  0  0  0  0  0  0  0
  -32.1842   66.6985   61.7120 O   0  0  0  0  0  0  0  0  0  0  0  0
  -30.9533   61.2533   63.7223 C   0  0  0  0  0  0  0  0  0  0  0  0
  -34.0145   64.2923   61.3799 N   0  0  0  0  0  0  0  0  0  0  0  0
  -33.6941   70.2485   61.5932 O   0  0  0  0  0  0  0  0  0  0  0  0
  -31.1857   62.6508   63.2913 C   0  0  0  0  0  0  0  0  0  0  0  0
  -30.2251   73.1938   63.9219 N   0  0  0  0  0  0  0  0  0  0  0  0
  -35.8578   64.0817   62.8913 O   0  0  0  0  0  0  0  0  0  0  0  0
  -32.1491   62.9837   62.2350 C   0  0  0  0  0  0  0  0  0  0  0  0
  -35.7197   67.1293   61.4200 N   0  0  0  0  0  0  0  0  0  0  0  0
  -31.3517   59.2462   61.2082 O   0  0  0  0  0  0  0  0  0  0  0  0
  -32.6915   64.3190   62.0238 C   0  0  1  0  0  0  0  0  0  0  0  0
  -31.8943   72.4421   65.3033 O   0  0  0  0  0  0  0  0  0  0  0  0
  -31.9380   65.3974   61.3831 C   0  0  2  0  0  0  0  0  0  0  0  0
  -37.9501   66.7020   61.6854 O   0  0  0  0  0  0  0  0  0  0  0  0
  -31.5412   67.6105   60.8808 C   0  0  1  0  0  0  0  0  0  0  0  0
  -38.5940   70.7517   60.8604 O   0  0  0  0  0  0  0  0  0  0  0  0
  -31.7128   69.0367   61.1707 C   0  0  0  0  0  0  0  0  0  0  0  0
  -30.0820   67.2149   60.8909 C   0  0  0  0  0  0  0  0  0  0  0  0
  -32.6851   69.4449   62.2198 C   0  0  1  0  0  0  0  0  0  0  0  0
  -35.0746   64.8618   62.1126 C   0  0  2  0  0  0  0  0  0  0  0  0
  -33.5641   58.4176   61.4944 C   0  0  0  0  0  0  0  0  0  0  0  0
  -34.6851   57.6439   62.0160 C   0  0  0  0  0  0  0  0  0  0  0  0
  -35.3110   57.9074   63.3208 C   0  0  0  0  0  0  0  0  0  0  0  0
  -36.3665   56.9931   63.8111 C   0  0  0  0  0  0  0  0  0  0  0  0
  -37.6521   57.6270   64.2548 C   0  0  0  0  0  0  0  0  0  0  0  0
  -38.7040   56.7784   64.8139 C   0  0  0  0  0  0  0  0  0  0  0  0
  -39.9748   56.4877   64.1530 C   0  0  0  0  0  0  0  0  0  0  0  0
  -40.5176   57.4905   63.1934 C   0  0  0  0  0  0  0  0  0  0  0  0
  -41.9159   57.0992   62.7269 C   0  0  0  0  0  0  0  0  0  0  0  0
  -43.0039   57.5135   63.6472 C   0  0  0  0  0  0  0  0  0  0  0  0
  -44.1749   56.5858   63.6632 C   0  0  0  0  0  0  0  0  0  0  0  0
  -45.3317   57.1364   64.4612 C   0  0  0  0  0  0  0  0  0  0  0  0
  -46.5192   56.2240   64.5082 C   0  0  0  0  0  0  0  0  0  0  0  0
  -47.5632   56.6035   65.5112 C   0  0  0  0  0  0  0  0  0  0  0  0
  -46.8790   57.5242   66.5280 C   0  0  0  0  0  0  0  0  0  0  0  0
  -30.9300   74.3986   64.2398 C   0  0  0  0  0  0  0  0  0  0  0  0
  -31.8770   74.7316   63.1041 C   0  0  0  0  0  0  0  0  0  0  0  0
  -31.9966   73.5621   62.1331 C   0  0  0  0  0  0  0  0  0  0  0  0
  -32.6501   72.3676   62.8110 C   0  0  0  0  0  0  0  0  0  0  0  0
  -31.5361   71.3468   63.2235 C   0  0  1  0  0  0  0  0  0  0  0  0
  -30.9036   71.9842   64.4121 C   0  0  0  0  0  0  0  0  0  0  0  0
  -37.3656   65.5123   61.3515 C   0  0  0  0  0  0  0  0  0  0  0  0
  -36.9854   67.6651   61.7896 C   0  0  0  0  0  0  0  0  0  0  0  0
  -35.8851   65.7301   61.1508 C   0  0  1  0  0  0  0  0  0  0  0  0
  -37.5736   70.0572   61.5138 C   0  0  0  0  0  0  0  0  0  0  0  0
  -36.3613   70.8903   61.7536 C   0  0  0  0  0  0  0  0  0  0  0  0
  -35.5536   71.0451   60.4817 C   0  0  0  0  0  0  0  0  0  0  0  0
  -35.1110   69.6576   60.0715 C   0  0  0  0  0  0  0  0  0  0  0  0
  -36.3202   68.8520   59.6932 C   0  0  0  0  0  0  0  0  0  0  0  0
  -37.3446   68.7728   60.7909 C   0  0  0  0  0  0  0  0  0  0  0  0
  1  2  1  0
  1  5  1  0
  1  7  1  0
  2 18  1  0
  2 29  1  0
 21  3  1  1
  4  6  1  0
  6 14  1  0
  7 10  1  0
  8 27  1  0
 48  8  1  1
  9 21  1  0
  9 23  1  0
 10 13  1  0
 11 19  1  0
 11 28  1  0
 27 12  1  6
 13 16  1  0
 14 44  1  0
 14 49  1  0
 28 15  1  6
 19 16  1  6
 17 51  1  0
 17 52  1  0
 19 21  1  0
 20 49  1  0
 22 50  1  0
 22 51  1  0
 23 25  1  0
 23 26  1  1
 24 53  1  0
 25 27  1  0
 28 52  1  0
 29 30  1  0
 30 31  1  0
 31 32  1  0
 32 33  1  0
 33 34  1  0
 34 35  1  0
 35 36  1  0
 36 37  1  0
 37 38  1  0
 38 39  1  0
 39 40  1  0
 40 41  1  0
 41 42  1  0
 42 43  1  0
 44 45  1  0
 45 46  1  0
 46 47  1  0
 47 48  1  0
 48 49  1  0
 52 50  1  1
 51 58  1  0
 53 54  1  0
 53 58  1  0
 54 55  1  0
 55 56  1  0
 56 57  1  0
 57 58  1  0
M  END
$$$$
