
     RDKit          3D

 56 55  0  0  0  0  0  0  0  0999 V2000
  -33.9366   61.4078   61.7808 N   0  0  0  0  0  0  0  0  0  0  0  0
  -34.1691   63.7291   62.3132 C   0  0  2  0  0  0  0  0  0  0  0  0
  -33.9979   64.7439   61.3897 O   0  0  0  0  0  0  0  0  0  0  0  0
  -35.4873   63.9833   64.3065 P   0  0  0  0  0  5  0  0  0  0  0  0
  -32.8533   63.3902   62.9348 C   0  0  0  0  0  0  0  0  0  0  0  0
  -34.3050   67.9301   63.8788 N   0  0  1  0  0  4  0  0  0  0  0  0
  -33.9428   59.9664   59.8913 O   0  0  0  0  0  0  0  0  0  0  0  0
  -33.1303   62.9806   64.4039 C   0  0  0  0  0  0  0  0  0  0  0  0
  -35.7081   62.4179   63.9690 O   0  0  0  0  0  0  0  0  0  0  0  0
  -32.5421   61.6591   64.6818 C   0  0  0  0  0  0  0  0  0  0  0  0
  -36.7460   64.0483   65.1698 O   0  0  0  0  0  1  0  0  0  0  0  0
  -33.4899   60.6460   65.1841 C   0  0  0  0  0  0  0  0  0  0  0  0
  -36.0232   65.1510   63.2963 O   0  0  0  0  0  0  0  0  0  0  0  0
  -32.9415   59.3237   65.5106 C   0  0  0  0  0  0  0  0  0  0  0  0
  -34.5858   64.4294   65.6665 O   0  0  0  0  0  0  0  0  0  0  0  0
  -33.7495   58.2942   66.1868 C   0  0  0  0  0  0  0  0  0  0  0  0
  -32.8650   57.0698   66.5776 C   0  0  0  0  0  0  0  0  0  0  0  0
  -32.0393   57.3479   67.7897 C   0  0  0  0  0  0  0  0  0  0  0  0
  -30.8800   56.3768   67.9234 C   0  0  0  0  0  0  0  0  0  0  0  0
  -29.7022   56.7669   67.0643 C   0  0  0  0  0  0  0  0  0  0  0  0
  -29.3926   55.7171   66.0229 C   0  0  0  0  0  0  0  0  0  0  0  0
  -28.1828   56.0582   65.1994 C   0  0  0  0  0  0  0  0  0  0  0  0
  -27.3832   54.8047   64.9748 C   0  0  0  0  0  0  0  0  0  0  0  0
  -26.1659   54.6972   65.8462 C   0  0  0  0  0  0  0  0  0  0  0  0
  -25.5208   53.3541   65.5791 C   0  0  0  0  0  0  0  0  0  0  0  0
  -34.8764   62.5338   61.7233 C   0  0  2  0  0  0  0  0  0  0  0  0
  -34.4956   60.2663   61.1131 C   0  0  0  0  0  0  0  0  0  0  0  0
  -35.9784   60.4454   60.8991 C   0  0  0  0  0  0  0  0  0  0  0  0
  -36.2973   60.2319   59.4173 C   0  0  0  0  0  0  0  0  0  0  0  0
  -37.4679   61.1268   59.0123 C   0  0  0  0  0  0  0  0  0  0  0  0
  -38.4672   60.3581   58.2446 C   0  0  0  0  0  0  0  0  0  0  0  0
  -39.8330   60.2031   58.7427 C   0  0  0  0  0  0  0  0  0  0  0  0
  -40.9082   59.5876   57.9583 C   0  0  0  0  0  0  0  0  0  0  0  0
  -42.2590   59.4889   58.6569 C   0  0  0  0  0  0  0  0  0  0  0  0
  -42.1927   58.3741   59.6368 C   0  0  0  0  0  0  0  0  0  0  0  0
  -43.0692   57.2005   59.4343 C   0  0  0  0  0  0  0  0  0  0  0  0
  -44.5016   57.4644   59.1221 C   0  0  0  0  0  0  0  0  0  0  0  0
  -45.3787   57.0346   60.2490 C   0  0  0  0  0  0  0  0  0  0  0  0
  -45.6355   58.0171   61.3368 C   0  0  0  0  0  0  0  0  0  0  0  0
  -47.0789   58.2461   61.6170 C   0  0  0  0  0  0  0  0  0  0  0  0
  -47.4406   59.3301   62.5308 C   0  0  0  0  0  0  0  0  0  0  0  0
  -48.7490   59.9767   62.5612 C   0  0  0  0  0  0  0  0  0  0  0  0
  -49.7199   59.6190   63.6347 C   0  0  0  0  0  0  0  0  0  0  0  0
  -50.7338   60.7398   63.9223 C   0  0  0  0  0  0  0  0  0  0  0  0
  -51.7850   60.8717   62.8635 C   0  0  0  0  0  0  0  0  0  0  0  0
  -53.0438   61.3708   63.4978 C   0  0  0  0  0  0  0  0  0  0  0  0
  -53.8660   60.3334   64.2028 C   0  0  0  0  0  0  0  0  0  0  0  0
  -55.3386   60.5682   64.1932 C   0  0  0  0  0  0  0  0  0  0  0  0
  -56.0133   59.4634   64.9858 C   0  0  0  0  0  0  0  0  0  0  0  0
  -57.3722   59.9070   65.4555 C   0  0  0  0  0  0  0  0  0  0  0  0
  -36.0365   62.2104   62.6646 C   0  0  0  0  0  0  0  0  0  0  0  0
  -36.2414   66.3882   63.8556 C   0  0  0  0  0  0  0  0  0  0  0  0
  -35.3949   67.4039   63.1279 C   0  0  0  0  0  0  0  0  0  0  0  0
  -33.0080   67.5229   63.4308 C   0  0  0  0  0  0  0  0  0  0  0  0
  -34.3864   69.3924   63.8040 C   0  0  0  0  0  0  0  0  0  0  0  0
  -34.4484   67.6048   65.2884 C   0  0  0  0  0  0  0  0  0  0  0  0
  1 26  1  0
  1 27  1  0
  2  3  1  6
  2  5  1  0
  2 26  1  0
  4  9  1  0
  4 11  1  0
  4 13  1  0
  4 15  1  0
  5  8  1  0
  6 53  1  0
  6 54  1  6
  6 55  1  0
  6 56  1  0
  7 27  1  0
  8 10  1  0
  9 51  1  0
 10 12  1  0
 12 14  1  0
 13 52  1  0
 14 16  1  0
 16 17  1  0
 17 18  1  0
 18 19  1  0
 19 20  1  0
 20 21  1  0
 21 22  1  0
 22 23  1  0
 23 24  1  0
 24 25  1  0
 26 51  1  1
 27 28  1  0
 28 29  1  0
 29 30  1  0
 30 31  1  0
 31 32  1  0
 32 33  1  0
 33 34  1  0
 34 35  1  0
 35 36  1  0
 36 37  1  0
 37 38  1  0
 38 39  1  0
 39 40  1  0
 40 41  1  0
 41 42  1  0
 42 43  1  0
 43 44  1  0
 44 45  1  0
 45 46  1  0
 46 47  1  0
 47 48  1  0
 48 49  1  0
 49 50  1  0
 52 53  1  0
M  CHG  2   6   1  11  -1
M  END
$$$$
