
     RDKit          3D

 56 55  0  0  0  0  0  0  0  0999 V2000
  -37.2429   64.1970   65.6253 N   0  0  0  0  0  0  0  0  0  0  0  0
  -38.8294   64.5990   63.8796 C   0  0  2  0  0  0  0  0  0  0  0  0
  -39.1005   65.1834   62.6561 O   0  0  0  0  0  0  0  0  0  0  0  0
  -37.2699   64.2622   60.9950 P   0  0  0  0  0  5  0  0  0  0  0  0
  -39.7590   65.1466   64.9134 C   0  0  0  0  0  0  0  0  0  0  0  0
  -33.0024   64.4779   60.6023 N   0  0  1  0  0  4  0  0  0  0  0  0
  -36.5262   62.2690   66.8157 O   0  0  0  0  0  0  0  0  0  0  0  0
  -40.9494   65.7971   64.1634 C   0  0  0  0  0  0  0  0  0  0  0  0
  -37.3789   63.3275   62.3094 O   0  0  0  0  0  0  0  0  0  0  0  0
  -42.1642   64.9823   64.3361 C   0  0  0  0  0  0  0  0  0  0  0  0
  -38.4824   63.6042   60.3388 O   0  0  0  0  0  1  0  0  0  0  0  0
  -42.7665   64.4848   63.0843 C   0  0  0  0  0  0  0  0  0  0  0  0
  -36.2830   63.8661   59.7539 O   0  0  0  0  0  0  0  0  0  0  0  0
  -44.2323   64.4954   62.9994 C   0  0  0  0  0  0  0  0  0  0  0  0
  -38.0979   65.7362   60.9425 O   0  0  0  0  0  0  0  0  0  0  0  0
  -45.0626   63.5826   63.8039 C   0  0  0  0  0  0  0  0  0  0  0  0
  -46.5782   63.8830   63.5876 C   0  0  0  0  0  0  0  0  0  0  0  0
  -47.4186   62.6667   63.7935 C   0  0  0  0  0  0  0  0  0  0  0  0
  -48.1935   62.2920   62.5429 C   0  0  0  0  0  0  0  0  0  0  0  0
  -48.7223   60.8796   62.5969 C   0  0  0  0  0  0  0  0  0  0  0  0
  -49.7895   60.6378   61.5552 C   0  0  0  0  0  0  0  0  0  0  0  0
  -49.8101   59.2167   61.0672 C   0  0  0  0  0  0  0  0  0  0  0  0
  -50.9036   59.0735   60.0451 C   0  0  0  0  0  0  0  0  0  0  0  0
  -51.1708   57.6540   59.6371 C   0  0  0  0  0  0  0  0  0  0  0  0
  -51.7440   57.6736   58.2362 C   0  0  0  0  0  0  0  0  0  0  0  0
  -37.3744   64.7209   64.2605 C   0  0  2  0  0  0  0  0  0  0  0  0
  -36.7240   62.8588   65.5904 C   0  0  0  0  0  0  0  0  0  0  0  0
  -35.4058   62.8156   64.8574 C   0  0  0  0  0  0  0  0  0  0  0  0
  -35.4545   61.7003   63.8100 C   0  0  0  0  0  0  0  0  0  0  0  0
  -34.0557   61.1148   63.6214 C   0  0  0  0  0  0  0  0  0  0  0  0
  -34.0511   60.1244   62.5268 C   0  0  0  0  0  0  0  0  0  0  0  0
  -34.5733   58.7753   62.7388 C   0  0  0  0  0  0  0  0  0  0  0  0
  -35.2947   58.0230   61.7076 C   0  0  0  0  0  0  0  0  0  0  0  0
  -36.0450   56.7898   62.1963 C   0  0  0  0  0  0  0  0  0  0  0  0
  -35.0531   55.8371   62.7582 C   0  0  0  0  0  0  0  0  0  0  0  0
  -34.9754   54.4761   62.1853 C   0  0  0  0  0  0  0  0  0  0  0  0
  -33.9619   53.5496   62.7628 C   0  0  0  0  0  0  0  0  0  0  0  0
  -33.8863   53.7019   64.2443 C   0  0  0  0  0  0  0  0  0  0  0  0
  -32.7385   54.4679   64.8014 C   0  0  0  0  0  0  0  0  0  0  0  0
  -32.5368   54.2781   66.2634 C   0  0  0  0  0  0  0  0  0  0  0  0
  -33.1457   55.2471   67.1752 C   0  0  0  0  0  0  0  0  0  0  0  0
  -32.5600   55.6585   68.4474 C   0  0  0  0  0  0  0  0  0  0  0  0
  -33.1230   56.8360   69.1682 C   0  0  0  0  0  0  0  0  0  0  0  0
  -32.0368   57.7802   69.7120 C   0  0  0  0  0  0  0  0  0  0  0  0
  -30.8239   57.8523   68.8360 C   0  0  0  0  0  0  0  0  0  0  0  0
  -29.6344   57.4113   69.6277 C   0  0  0  0  0  0  0  0  0  0  0  0
  -28.6809   58.5004   70.0200 C   0  0  0  0  0  0  0  0  0  0  0  0
  -27.7091   58.1447   71.0937 C   0  0  0  0  0  0  0  0  0  0  0  0
  -27.7191   59.2415   72.1430 C   0  0  0  0  0  0  0  0  0  0  0  0
  -26.7795   58.9023   73.2682 C   0  0  0  0  0  0  0  0  0  0  0  0
  -36.6048   63.7806   63.3330 C   0  0  0  0  0  0  0  0  0  0  0  0
  -35.2202   64.7087   59.5271 C   0  0  0  0  0  0  0  0  0  0  0  0
  -33.9398   63.9251   59.6836 C   0  0  0  0  0  0  0  0  0  0  0  0
  -31.6290   64.2077   60.3031 C   0  0  0  0  0  0  0  0  0  0  0  0
  -33.2010   65.9309   60.6104 C   0  0  0  0  0  0  0  0  0  0  0  0
  -33.2922   64.0388   61.9577 C   0  0  0  0  0  0  0  0  0  0  0  0
  1 26  1  0
  1 27  1  0
  2  3  1  6
  2  5  1  0
  2 26  1  0
  4  9  1  0
  4 11  1  0
  4 13  1  0
  4 15  1  0
  5  8  1  0
  6 53  1  0
  6 54  1  6
  6 55  1  0
  6 56  1  0
  7 27  1  0
  8 10  1  0
  9 51  1  0
 10 12  1  0
 12 14  1  0
 13 52  1  0
 14 16  1  0
 16 17  1  0
 17 18  1  0
 18 19  1  0
 19 20  1  0
 20 21  1  0
 21 22  1  0
 22 23  1  0
 23 24  1  0
 24 25  1  0
 26 51  1  6
 27 28  1  0
 28 29  1  0
 29 30  1  0
 30 31  1  0
 31 32  1  0
 32 33  1  0
 33 34  1  0
 34 35  1  0
 35 36  1  0
 36 37  1  0
 37 38  1  0
 38 39  1  0
 39 40  1  0
 40 41  1  0
 41 42  1  0
 42 43  1  0
 43 44  1  0
 44 45  1  0
 45 46  1  0
 46 47  1  0
 47 48  1  0
 48 49  1  0
 49 50  1  0
 52 53  1  0
M  CHG  2   6   1  11  -1
M  END
$$$$
