
     RDKit          3D

 56 55  0  0  0  0  0  0  0  0999 V2000
  -39.7938   65.3547   61.2822 N   0  0  0  0  0  0  0  0  0  0  0  0
  -39.8006   65.7862   63.6359 C   0  0  2  0  0  0  0  0  0  0  0  0
  -39.0866   65.6763   64.8148 O   0  0  0  0  0  0  0  0  0  0  0  0
  -37.1167   66.2082   64.1775 P   0  0  0  0  0  5  0  0  0  0  0  0
  -40.9364   64.8153   63.6456 C   0  0  0  0  0  0  0  0  0  0  0  0
  -37.0699   68.8332   67.1765 N   0  0  1  0  0  4  0  0  0  0  0  0
  -40.3355   66.4984   59.2706 O   0  0  0  0  0  0  0  0  0  0  0  0
  -40.7746   63.9306   64.9081 C   0  0  0  0  0  0  0  0  0  0  0  0
  -37.2353   67.2767   62.9702 O   0  0  0  0  0  0  0  0  0  0  0  0
  -40.6584   62.5136   64.5232 C   0  0  0  0  0  0  0  0  0  0  0  0
  -38.6298   66.0090   64.2452 O   0  0  0  0  0  1  0  0  0  0  0  0
  -40.6058   61.5620   65.6496 C   0  0  0  0  0  0  0  0  0  0  0  0
  -37.0307   66.6963   65.7348 O   0  0  0  0  0  0  0  0  0  0  0  0
  -41.8598   60.8912   66.0150 C   0  0  0  0  0  0  0  0  0  0  0  0
  -36.9607   64.5606   63.8274 O   0  0  0  0  0  0  0  0  0  0  0  0
  -41.8721   59.6362   66.7861 C   0  0  0  0  0  0  0  0  0  0  0  0
  -41.9899   58.4064   65.8332 C   0  0  0  0  0  0  0  0  0  0  0  0
  -42.7131   58.7498   64.5733 C   0  0  0  0  0  0  0  0  0  0  0  0
  -43.7491   57.7017   64.2082 C   0  0  0  0  0  0  0  0  0  0  0  0
  -43.6788   56.4888   65.1034 C   0  0  0  0  0  0  0  0  0  0  0  0
  -44.8232   55.5354   64.8507 C   0  0  0  0  0  0  0  0  0  0  0  0
  -44.3575   54.1362   64.5620 C   0  0  0  0  0  0  0  0  0  0  0  0
  -45.0413   53.1943   65.5139 C   0  0  0  0  0  0  0  0  0  0  0  0
  -46.2346   52.4986   64.9268 C   0  0  0  0  0  0  0  0  0  0  0  0
  -46.7460   51.5089   65.9517 C   0  0  0  0  0  0  0  0  0  0  0  0
  -38.9170   65.6592   62.4193 C   0  0  2  0  0  0  0  0  0  0  0  0
  -39.3440   66.0560   60.1130 C   0  0  0  0  0  0  0  0  0  0  0  0
  -38.4174   65.1911   59.2944 C   0  0  0  0  0  0  0  0  0  0  0  0
  -39.1856   63.9600   58.8072 C   0  0  0  0  0  0  0  0  0  0  0  0
  -38.2046   62.8208   58.5331 C   0  0  0  0  0  0  0  0  0  0  0  0
  -38.9293   61.5537   58.3136 C   0  0  0  0  0  0  0  0  0  0  0  0
  -38.2060   60.3296   57.9731 C   0  0  0  0  0  0  0  0  0  0  0  0
  -38.3289   59.6599   56.6745 C   0  0  0  0  0  0  0  0  0  0  0  0
  -37.2029   58.6951   56.3223 C   0  0  0  0  0  0  0  0  0  0  0  0
  -37.5460   58.0331   55.0372 C   0  0  0  0  0  0  0  0  0  0  0  0
  -37.2586   56.5906   54.8851 C   0  0  0  0  0  0  0  0  0  0  0  0
  -35.8622   56.1419   55.1456 C   0  0  0  0  0  0  0  0  0  0  0  0
  -35.8019   54.6607   55.3077 C   0  0  0  0  0  0  0  0  0  0  0  0
  -34.9013   54.1181   56.3609 C   0  0  0  0  0  0  0  0  0  0  0  0
  -33.4716   54.4914   56.1857 C   0  0  0  0  0  0  0  0  0  0  0  0
  -32.5903   54.4125   57.3511 C   0  0  0  0  0  0  0  0  0  0  0  0
  -32.9427   54.8981   58.6819 C   0  0  0  0  0  0  0  0  0  0  0  0
  -31.9386   54.8205   59.7814 C   0  0  0  0  0  0  0  0  0  0  0  0
  -32.5535   55.0596   61.1712 C   0  0  0  0  0  0  0  0  0  0  0  0
  -32.0493   56.3044   61.8344 C   0  0  0  0  0  0  0  0  0  0  0  0
  -32.1048   56.1137   63.3165 C   0  0  0  0  0  0  0  0  0  0  0  0
  -32.3900   57.3504   64.1157 C   0  0  0  0  0  0  0  0  0  0  0  0
  -31.7771   57.3902   65.4745 C   0  0  0  0  0  0  0  0  0  0  0  0
  -32.2484   58.6460   66.1850 C   0  0  0  0  0  0  0  0  0  0  0  0
  -31.7280   58.6792   67.5964 C   0  0  0  0  0  0  0  0  0  0  0  0
  -38.3155   67.0432   62.1758 C   0  0  0  0  0  0  0  0  0  0  0  0
  -38.2232   66.7796   66.4144 C   0  0  0  0  0  0  0  0  0  0  0  0
  -38.1395   67.9197   67.3999 C   0  0  0  0  0  0  0  0  0  0  0  0
  -36.6734   68.9793   65.8090 C   0  0  0  0  0  0  0  0  0  0  0  0
  -37.4987   70.1420   67.6802 C   0  0  0  0  0  0  0  0  0  0  0  0
  -35.9102   68.4707   67.9749 C   0  0  0  0  0  0  0  0  0  0  0  0
  1 26  1  0
  1 27  1  0
  2  3  1  1
  2  5  1  0
  2 26  1  0
  4  9  1  0
  4 11  1  0
  4 13  1  0
  4 15  1  0
  5  8  1  0
  6 53  1  0
  6 54  1  6
  6 55  1  0
  6 56  1  0
  7 27  1  0
  8 10  1  0
  9 51  1  0
 10 12  1  0
 12 14  1  0
 13 52  1  0
 14 16  1  0
 16 17  1  0
 17 18  1  0
 18 19  1  0
 19 20  1  0
 20 21  1  0
 21 22  1  0
 22 23  1  0
 23 24  1  0
 24 25  1  0
 26 51  1  6
 27 28  1  0
 28 29  1  0
 29 30  1  0
 30 31  1  0
 31 32  1  0
 32 33  1  0
 33 34  1  0
 34 35  1  0
 35 36  1  0
 36 37  1  0
 37 38  1  0
 38 39  1  0
 39 40  1  0
 40 41  1  0
 41 42  1  0
 42 43  1  0
 43 44  1  0
 44 45  1  0
 45 46  1  0
 46 47  1  0
 47 48  1  0
 48 49  1  0
 49 50  1  0
 52 53  1  0
M  CHG  2   6   1  11  -1
M  END
$$$$
