
     RDKit          3D

 56 55  0  0  0  0  0  0  0  0999 V2000
  -38.4528   66.2110   62.8339 N   0  0  0  0  0  0  0  0  0  0  0  0
  -40.1144   67.3265   64.1458 C   0  0  2  0  0  0  0  0  0  0  0  0
  -40.1053   68.6314   64.6028 O   0  0  0  0  0  0  0  0  0  0  0  0
  -37.7704   70.2355   65.0719 P   0  0  0  0  0  5  0  0  0  0  0  0
  -41.1477   66.5429   64.8881 C   0  0  0  0  0  0  0  0  0  0  0  0
  -38.9011   74.4205   64.9842 N   0  0  1  0  0  4  0  0  0  0  0  0
  -36.6699   66.0678   61.2692 O   0  0  0  0  0  0  0  0  0  0  0  0
  -41.3208   65.1922   64.1475 C   0  0  0  0  0  0  0  0  0  0  0  0
  -38.2335   69.0379   64.0898 O   0  0  0  0  0  0  0  0  0  0  0  0
  -40.4018   64.1858   64.7062 C   0  0  0  0  0  0  0  0  0  0  0  0
  -39.2078   70.6992   65.3015 O   0  0  0  0  0  1  0  0  0  0  0  0
  -41.0540   63.0721   65.4213 C   0  0  0  0  0  0  0  0  0  0  0  0
  -37.3120   71.6877   64.4785 O   0  0  0  0  0  0  0  0  0  0  0  0
  -41.3271   61.8531   64.6497 C   0  0  0  0  0  0  0  0  0  0  0  0
  -37.6429   69.9549   66.7351 O   0  0  0  0  0  0  0  0  0  0  0  0
  -42.6163   61.1469   64.7457 C   0  0  0  0  0  0  0  0  0  0  0  0
  -42.7115   60.0269   63.6636 C   0  0  0  0  0  0  0  0  0  0  0  0
  -44.1290   59.6982   63.3306 C   0  0  0  0  0  0  0  0  0  0  0  0
  -44.2285   58.6780   62.2106 C   0  0  0  0  0  0  0  0  0  0  0  0
  -45.6585   58.3752   61.8353 C   0  0  0  0  0  0  0  0  0  0  0  0
  -46.0789   56.9959   62.2864 C   0  0  0  0  0  0  0  0  0  0  0  0
  -47.5167   56.9423   62.7199 C   0  0  0  0  0  0  0  0  0  0  0  0
  -48.2875   56.1105   61.7325 C   0  0  0  0  0  0  0  0  0  0  0  0
  -49.7752   56.1659   61.9231 C   0  0  0  0  0  0  0  0  0  0  0  0
  -50.1808   54.9720   62.7606 C   0  0  0  0  0  0  0  0  0  0  0  0
  -38.7435   66.6973   64.1880 C   0  0  2  0  0  0  0  0  0  0  0  0
  -37.0446   66.3033   62.5702 C   0  0  0  0  0  0  0  0  0  0  0  0
  -36.2741   65.3382   63.4371 C   0  0  0  0  0  0  0  0  0  0  0  0
  -35.7645   64.1856   62.5682 C   0  0  0  0  0  0  0  0  0  0  0  0
  -34.2633   64.0041   62.7888 C   0  0  0  0  0  0  0  0  0  0  0  0
  -33.5819   63.7188   61.5109 C   0  0  0  0  0  0  0  0  0  0  0  0
  -32.3951   62.8658   61.4721 C   0  0  0  0  0  0  0  0  0  0  0  0
  -31.0447   63.3806   61.2242 C   0  0  0  0  0  0  0  0  0  0  0  0
  -29.9085   62.5692   61.8351 C   0  0  0  0  0  0  0  0  0  0  0  0
  -28.8237   62.4595   60.8260 C   0  0  0  0  0  0  0  0  0  0  0  0
  -27.6716   61.5797   61.1178 C   0  0  0  0  0  0  0  0  0  0  0  0
  -27.8297   60.1281   60.8226 C   0  0  0  0  0  0  0  0  0  0  0  0
  -26.7197   59.3388   61.4298 C   0  0  0  0  0  0  0  0  0  0  0  0
  -26.9653   57.8956   61.6968 C   0  0  0  0  0  0  0  0  0  0  0  0
  -27.1261   57.5657   63.1388 C   0  0  0  0  0  0  0  0  0  0  0  0
  -27.7225   56.2763   63.4891 C   0  0  0  0  0  0  0  0  0  0  0  0
  -29.1460   55.9722   63.3778 C   0  0  0  0  0  0  0  0  0  0  0  0
  -29.5855   54.5536   63.2460 C   0  0  0  0  0  0  0  0  0  0  0  0
  -29.4057   54.0012   61.8215 C   0  0  0  0  0  0  0  0  0  0  0  0
  -30.6896   53.5481   61.1970 C   0  0  0  0  0  0  0  0  0  0  0  0
  -31.1012   52.2577   61.8306 C   0  0  0  0  0  0  0  0  0  0  0  0
  -32.5706   52.1066   62.0905 C   0  0  0  0  0  0  0  0  0  0  0  0
  -33.0784   50.7046   62.0995 C   0  0  0  0  0  0  0  0  0  0  0  0
  -34.3708   50.6493   61.3052 C   0  0  0  0  0  0  0  0  0  0  0  0
  -35.1617   49.4227   61.6711 C   0  0  0  0  0  0  0  0  0  0  0  0
  -37.7588   67.8268   64.4901 C   0  0  0  0  0  0  0  0  0  0  0  0
  -38.2551   72.3741   63.7502 C   0  0  0  0  0  0  0  0  0  0  0  0
  -39.2023   73.0564   64.7068 C   0  0  0  0  0  0  0  0  0  0  0  0
  -39.3632   74.8974   66.2521 C   0  0  0  0  0  0  0  0  0  0  0  0
  -37.4428   74.5665   64.9342 C   0  0  0  0  0  0  0  0  0  0  0  0
  -39.4140   75.2834   63.9325 C   0  0  0  0  0  0  0  0  0  0  0  0
  1 26  1  0
  1 27  1  0
  2  3  1  1
  2  5  1  0
  2 26  1  0
  4  9  1  0
  4 11  1  0
  4 13  1  0
  4 15  1  0
  5  8  1  0
  6 53  1  0
  6 54  1  1
  6 55  1  0
  6 56  1  0
  7 27  1  0
  8 10  1  0
  9 51  1  0
 10 12  1  0
 12 14  1  0
 13 52  1  0
 14 16  1  0
 16 17  1  0
 17 18  1  0
 18 19  1  0
 19 20  1  0
 20 21  1  0
 21 22  1  0
 22 23  1  0
 23 24  1  0
 24 25  1  0
 26 51  1  6
 27 28  1  0
 28 29  1  0
 29 30  1  0
 30 31  1  0
 31 32  1  0
 32 33  1  0
 33 34  1  0
 34 35  1  0
 35 36  1  0
 36 37  1  0
 37 38  1  0
 38 39  1  0
 39 40  1  0
 40 41  1  0
 41 42  1  0
 42 43  1  0
 43 44  1  0
 44 45  1  0
 45 46  1  0
 46 47  1  0
 47 48  1  0
 48 49  1  0
 49 50  1  0
 52 53  1  0
M  CHG  2   6   1  11  -1
M  END
$$$$
