
     RDKit          3D

 55 55  0  0  0  0  0  0  0  0999 V2000
  -36.9834   64.9796   64.6461 N   0  0  0  0  0  0  0  0  0  0  0  0
  -35.3872   66.7240   63.6319 C   0  0  0  0  0  0  0  0  0  0  0  0
  -35.3242   67.2930   62.3231 O   0  0  0  0  0  0  0  0  0  0  0  0
  -35.9239   65.2703   63.6412 C   0  0  1  0  0  0  0  0  0  0  0  0
  -33.7223   64.5708   62.8415 O   0  0  0  0  0  0  0  0  0  0  0  0
  -34.7965   64.1851   63.7157 C   0  0  2  0  0  0  0  0  0  0  0  0
  -36.0159   64.1061   66.5907 O   0  0  0  0  0  0  0  0  0  0  0  0
  -35.1396   62.7173   63.4423 C   0  0  0  0  0  0  0  0  0  0  0  0
  -35.2760   61.8168   64.6695 C   0  0  0  0  0  0  0  0  0  0  0  0
  -38.2824   67.9359   63.6322 O   0  0  0  0  0  0  0  0  0  0  0  0
  -35.3916   60.3454   64.2500 C   0  0  0  0  0  0  0  0  0  0  0  0
  -38.0730   70.7963   63.9272 O   0  0  0  0  0  0  0  0  0  0  0  0
  -34.1697   59.8877   63.4554 C   0  0  0  0  0  0  0  0  0  0  0  0
  -38.0838   73.3584   64.0587 O   0  0  0  0  0  0  0  0  0  0  0  0
  -34.1322   58.3674   63.2992 C   0  0  0  0  0  0  0  0  0  0  0  0
  -35.3685   70.9551   63.3378 O   0  0  0  0  0  0  0  0  0  0  0  0
  -32.9611   57.8662   62.4470 C   0  0  0  0  0  0  0  0  0  0  0  0
  -36.3399   68.8369   60.8195 O   0  0  0  0  0  0  0  0  0  0  0  0
  -33.3344   57.0859   61.1799 C   0  0  0  0  0  0  0  0  0  0  0  0
  -33.6858   69.4310   59.8585 O   0  0  0  0  0  0  0  0  0  0  0  0
  -33.5830   55.5956   61.4243 C   0  0  0  0  0  0  0  0  0  0  0  0
  -32.5156   54.7315   60.7457 C   0  0  0  0  0  0  0  0  0  0  0  0
  -32.0531   53.5503   61.6121 C   0  0  0  0  0  0  0  0  0  0  0  0
  -40.2022   72.0777   64.5786 O   0  0  0  0  0  1  0  0  0  0  0  0
  -30.6555   53.7418   62.2113 C   0  0  0  0  0  0  0  0  0  0  0  0
  -39.3628   72.2311   62.1852 O   0  0  0  0  0  0  0  0  0  0  0  0
  -30.1226   52.4953   62.9285 C   0  0  0  0  0  0  0  0  0  0  0  0
  -28.6120   52.4587   63.1818 C   0  0  0  0  0  0  0  0  0  0  0  0
  -27.9653   51.0708   63.1789 C   0  0  0  0  0  0  0  0  0  0  0  0
  -26.4758   51.0866   63.4840 C   0  0  0  0  0  0  0  0  0  0  0  0
  -36.7166   63.7666   65.4062 C   0  0  0  0  0  0  0  0  0  0  0  0
  -37.9998   63.0233   65.8116 C   0  0  0  0  0  0  0  0  0  0  0  0
  -38.8731   62.5849   64.6303 C   0  0  0  0  0  0  0  0  0  0  0  0
  -40.3524   62.5684   65.0260 C   0  0  0  0  0  0  0  0  0  0  0  0
  -41.2949   63.0354   63.9147 C   0  0  0  0  0  0  0  0  0  0  0  0
  -42.3742   64.0355   64.3459 C   0  0  0  0  0  0  0  0  0  0  0  0
  -43.6942   63.8682   63.5855 C   0  0  0  0  0  0  0  0  0  0  0  0
  -43.8798   62.4675   62.9912 C   0  0  0  0  0  0  0  0  0  0  0  0
  -45.2390   62.2712   62.3136 C   0  0  0  0  0  0  0  0  0  0  0  0
  -45.1575   61.5791   60.9536 C   0  0  0  0  0  0  0  0  0  0  0  0
  -46.5386   61.2118   60.3951 C   0  0  0  0  0  0  0  0  0  0  0  0
  -47.4148   60.4673   61.4090 C   0  0  0  0  0  0  0  0  0  0  0  0
  -47.0775   58.9722   61.4302 C   0  0  0  0  0  0  0  0  0  0  0  0
  -48.3133   58.0670   61.4511 C   0  0  0  0  0  0  0  0  0  0  0  0
  -48.0149   56.6271   61.8740 C   0  0  0  0  0  0  0  0  0  0  0  0
  -46.5954   56.5082   62.4358 C   0  0  0  0  0  0  0  0  0  0  0  0
  -46.5231   55.7663   63.7724 C   0  0  0  0  0  0  0  0  0  0  0  0
  -45.4942   54.6496   63.7964 C   0  0  0  0  0  0  0  0  0  0  0  0
  -36.5141   67.9684   61.9334 C   0  0  2  0  0  0  0  0  0  0  0  0
  -37.1372   68.6775   63.1638 C   0  0  1  0  0  0  0  0  0  0  0  0
  -37.5596   70.1031   62.7849 C   0  0  2  0  0  0  0  0  0  0  0  0
  -36.3124   70.8437   62.2680 C   0  0  2  0  0  0  0  0  0  0  0  0
  -35.6988   70.0980   61.0582 C   0  0  1  0  0  0  0  0  0  0  0  0
  -34.1678   69.9650   61.0927 C   0  0  0  0  0  0  0  0  0  0  0  0
  -39.0231   72.0921   63.7587 S   0  0  2  0  0  4  0  0  0  0  0  0
  1  4  1  0
  1 31  1  0
  2  3  1  0
  4  2  1  1
 49  3  1  1
  4  6  1  0
  6  5  1  6
  6  8  1  0
  7 31  1  0
  8  9  1  0
  9 11  1  0
 50 10  1  6
 11 13  1  0
 51 12  1  1
 12 55  1  0
 13 15  1  0
 55 14  1  1
 15 17  1  0
 52 16  1  1
 17 19  1  0
 18 49  1  0
 18 53  1  0
 19 21  1  0
 20 54  1  0
 21 22  1  0
 22 23  1  0
 23 25  1  0
 24 55  1  0
 25 27  1  0
 26 55  1  0
 27 28  1  0
 28 29  1  0
 29 30  1  0
 31 32  1  0
 32 33  1  0
 33 34  1  0
 34 35  1  0
 35 36  1  0
 36 37  1  0
 37 38  1  0
 38 39  1  0
 39 40  1  0
 40 41  1  0
 41 42  1  0
 42 43  1  0
 43 44  1  0
 44 45  1  0
 45 46  1  0
 46 47  1  0
 47 48  1  0
 49 50  1  0
 50 51  1  0
 51 52  1  0
 52 53  1  0
 53 54  1  1
M  CHG  1  24  -1
M  END
$$$$
