
     RDKit          3D

 55 55  0  0  0  0  0  0  0  0999 V2000
  -35.3732   62.5385   62.9155 N   0  0  0  0  0  0  0  0  0  0  0  0
  -33.8882   63.8689   61.2895 C   0  0  0  0  0  0  0  0  0  0  0  0
  -33.6446   65.0674   62.0278 O   0  0  0  0  0  0  0  0  0  0  0  0
  -34.0749   62.6227   62.1915 C   0  0  1  0  0  0  0  0  0  0  0  0
  -31.7098   63.0227   62.6628 O   0  0  0  0  0  0  0  0  0  0  0  0
  -32.8866   62.3815   63.1833 C   0  0  2  0  0  0  0  0  0  0  0  0
  -36.5116   61.3766   64.5992 O   0  0  0  0  0  0  0  0  0  0  0  0
  -32.5185   60.9511   63.5899 C   0  0  0  0  0  0  0  0  0  0  0  0
  -32.9489   59.8446   62.6275 C   0  0  0  0  0  0  0  0  0  0  0  0
  -35.4564   67.3566   60.4933 O   0  0  0  0  0  0  0  0  0  0  0  0
  -33.0754   58.5054   63.3657 C   0  0  0  0  0  0  0  0  0  0  0  0
  -34.7073   69.6796   62.0280 O   0  0  0  0  0  0  0  0  0  0  0  0
  -31.9632   57.5358   62.9699 C   0  0  0  0  0  0  0  0  0  0  0  0
  -36.3024   70.9860   63.5546 O   0  0  0  0  0  0  0  0  0  0  0  0
  -32.5219   56.2544   62.3513 C   0  0  0  0  0  0  0  0  0  0  0  0
  -33.3475   68.2966   64.0093 O   0  0  0  0  0  0  0  0  0  0  0  0
  -31.4428   55.2354   61.9695 C   0  0  0  0  0  0  0  0  0  0  0  0
  -32.0720   66.6848   61.2620 O   0  0  0  0  0  0  0  0  0  0  0  0
  -31.7460   53.7711   62.3126 C   0  0  0  0  0  0  0  0  0  0  0  0
  -29.9088   66.2749   63.6265 O   0  0  0  0  0  0  0  0  0  0  0  0
  -30.6711   53.1045   63.1745 C   0  0  0  0  0  0  0  0  0  0  0  0
  -30.9316   51.6032   63.3319 C   0  0  0  0  0  0  0  0  0  0  0  0
  -29.8459   50.7299   62.6851 C   0  0  0  0  0  0  0  0  0  0  0  0
  -34.7449   69.2674   64.5635 O   0  0  0  0  0  1  0  0  0  0  0  0
  -28.7349   50.3162   63.6563 C   0  0  0  0  0  0  0  0  0  0  0  0
  -36.7339   68.5198   63.1701 O   0  0  0  0  0  0  0  0  0  0  0  0
  -27.9664   51.5048   64.2470 C   0  0  0  0  0  0  0  0  0  0  0  0
  -26.4894   51.2576   64.5705 C   0  0  0  0  0  0  0  0  0  0  0  0
  -25.5389   51.2126   63.3708 C   0  0  0  0  0  0  0  0  0  0  0  0
  -25.6303   49.9279   62.5627 C   0  0  0  0  0  0  0  0  0  0  0  0
  -35.5853   61.2380   63.5353 C   0  0  0  0  0  0  0  0  0  0  0  0
  -36.1438   60.1945   62.5542 C   0  0  0  0  0  0  0  0  0  0  0  0
  -36.8891   60.7932   61.3557 C   0  0  0  0  0  0  0  0  0  0  0  0
  -38.2854   61.2686   61.7676 C   0  0  0  0  0  0  0  0  0  0  0  0
  -38.5154   61.2740   63.2803 C   0  0  0  0  0  0  0  0  0  0  0  0
  -37.9519   60.0640   64.0347 C   0  0  0  0  0  0  0  0  0  0  0  0
  -38.2637   60.0860   65.5351 C   0  0  0  0  0  0  0  0  0  0  0  0
  -38.9550   61.3751   65.9932 C   0  0  0  0  0  0  0  0  0  0  0  0
  -40.4586   61.3930   65.7039 C   0  0  0  0  0  0  0  0  0  0  0  0
  -40.9993   62.7720   65.3280 C   0  0  0  0  0  0  0  0  0  0  0  0
  -42.4788   62.7349   64.9227 C   0  0  0  0  0  0  0  0  0  0  0  0
  -42.9377   64.0165   64.2177 C   0  0  0  0  0  0  0  0  0  0  0  0
  -43.4451   65.0475   65.2322 C   0  0  0  0  0  0  0  0  0  0  0  0
  -43.7403   66.4183   64.6151 C   0  0  0  0  0  0  0  0  0  0  0  0
  -43.7837   67.5570   65.6363 C   0  0  0  0  0  0  0  0  0  0  0  0
  -45.1086   67.5488   66.4040 C   0  0  0  0  0  0  0  0  0  0  0  0
  -45.2553   68.7104   67.3896 C   0  0  0  0  0  0  0  0  0  0  0  0
  -46.2620   68.4490   68.4963 C   0  0  0  0  0  0  0  0  0  0  0  0
  -33.4117   66.2077   61.2098 C   0  0  2  0  0  0  0  0  0  0  0  0
  -34.4592   67.3042   61.5344 C   0  0  1  0  0  0  0  0  0  0  0  0
  -33.7652   68.6669   61.6596 C   0  0  2  0  0  0  0  0  0  0  0  0
  -32.6955   68.5528   62.7613 C   0  0  2  0  0  0  0  0  0  0  0  0
  -31.6815   67.4335   62.4219 C   0  0  1  0  0  0  0  0  0  0  0  0
  -31.3165   66.5161   63.6000 C   0  0  0  0  0  0  0  0  0  0  0  0
  -35.5396   69.5815   63.4092 S   0  0  2  0  0  4  0  0  0  0  0  0
  1  4  1  0
  1 31  1  0
  2  3  1  0
  4  2  1  1
 49  3  1  1
  4  6  1  0
  6  5  1  6
  6  8  1  0
  7 31  1  0
  8  9  1  0
  9 11  1  0
 50 10  1  6
 11 13  1  0
 51 12  1  1
 12 55  1  0
 13 15  1  0
 55 14  1  1
 15 17  1  0
 52 16  1  1
 17 19  1  0
 18 49  1  0
 18 53  1  0
 19 21  1  0
 20 54  1  0
 21 22  1  0
 22 23  1  0
 23 25  1  0
 24 55  1  0
 25 27  1  0
 26 55  1  0
 27 28  1  0
 28 29  1  0
 29 30  1  0
 31 32  1  0
 32 33  1  0
 33 34  1  0
 34 35  1  0
 35 36  1  0
 36 37  1  0
 37 38  1  0
 38 39  1  0
 39 40  1  0
 40 41  1  0
 41 42  1  0
 42 43  1  0
 43 44  1  0
 44 45  1  0
 45 46  1  0
 46 47  1  0
 47 48  1  0
 49 50  1  0
 50 51  1  0
 51 52  1  0
 52 53  1  0
 53 54  1  1
M  CHG  1  24  -1
M  END
$$$$
